*SPEF "ieee 1481-1999"
*DESIGN "shifter"
*DATE "19:52:57 Monday June 17, 2024"
*VENDOR "The OpenROAD Project"
*PROGRAM "OpenROAD"
*VERSION "0889970d1790a2617e69f253221b8bd7626e51dc"
*DESIGN_FLOW "NAME_SCOPE LOCAL" "PIN_CAP NONE"
*DIVIDER /
*DELIMITER :
*BUS_DELIMITER []
*T_UNIT 1 NS
*C_UNIT 1 PF
*R_UNIT 1 OHM
*L_UNIT 1 HENRY

*NAME_MAP
*3 clk
*4 input_pc[0]
*5 input_pc[10]
*6 input_pc[11]
*7 input_pc[12]
*8 input_pc[13]
*9 input_pc[14]
*10 input_pc[15]
*11 input_pc[1]
*12 input_pc[2]
*13 input_pc[3]
*14 input_pc[4]
*15 input_pc[5]
*16 input_pc[6]
*17 input_pc[7]
*18 input_pc[8]
*19 input_pc[9]
*20 output_ai[0]
*21 output_ai[100]
*22 output_ai[101]
*23 output_ai[102]
*24 output_ai[103]
*25 output_ai[104]
*26 output_ai[105]
*27 output_ai[106]
*28 output_ai[107]
*29 output_ai[108]
*30 output_ai[109]
*31 output_ai[10]
*32 output_ai[110]
*33 output_ai[111]
*34 output_ai[112]
*35 output_ai[113]
*36 output_ai[114]
*37 output_ai[115]
*38 output_ai[116]
*39 output_ai[117]
*40 output_ai[118]
*41 output_ai[119]
*42 output_ai[11]
*43 output_ai[120]
*44 output_ai[121]
*45 output_ai[122]
*46 output_ai[123]
*47 output_ai[124]
*48 output_ai[125]
*49 output_ai[126]
*50 output_ai[127]
*51 output_ai[128]
*52 output_ai[129]
*53 output_ai[12]
*54 output_ai[130]
*55 output_ai[131]
*56 output_ai[132]
*57 output_ai[133]
*58 output_ai[134]
*59 output_ai[135]
*60 output_ai[136]
*61 output_ai[137]
*62 output_ai[138]
*63 output_ai[139]
*64 output_ai[13]
*65 output_ai[140]
*66 output_ai[141]
*67 output_ai[142]
*68 output_ai[143]
*69 output_ai[144]
*70 output_ai[145]
*71 output_ai[146]
*72 output_ai[147]
*73 output_ai[148]
*74 output_ai[149]
*75 output_ai[14]
*76 output_ai[150]
*77 output_ai[151]
*78 output_ai[152]
*79 output_ai[153]
*80 output_ai[154]
*81 output_ai[155]
*82 output_ai[156]
*83 output_ai[157]
*84 output_ai[158]
*85 output_ai[159]
*86 output_ai[15]
*87 output_ai[160]
*88 output_ai[161]
*89 output_ai[162]
*90 output_ai[163]
*91 output_ai[164]
*92 output_ai[165]
*93 output_ai[166]
*94 output_ai[167]
*95 output_ai[168]
*96 output_ai[169]
*97 output_ai[16]
*98 output_ai[170]
*99 output_ai[171]
*100 output_ai[172]
*101 output_ai[173]
*102 output_ai[174]
*103 output_ai[175]
*104 output_ai[176]
*105 output_ai[177]
*106 output_ai[178]
*107 output_ai[179]
*108 output_ai[17]
*109 output_ai[180]
*110 output_ai[181]
*111 output_ai[182]
*112 output_ai[183]
*113 output_ai[184]
*114 output_ai[185]
*115 output_ai[186]
*116 output_ai[187]
*117 output_ai[188]
*118 output_ai[189]
*119 output_ai[18]
*120 output_ai[190]
*121 output_ai[191]
*122 output_ai[192]
*123 output_ai[193]
*124 output_ai[194]
*125 output_ai[195]
*126 output_ai[196]
*127 output_ai[197]
*128 output_ai[198]
*129 output_ai[199]
*130 output_ai[19]
*131 output_ai[1]
*132 output_ai[200]
*133 output_ai[201]
*134 output_ai[202]
*135 output_ai[203]
*136 output_ai[204]
*137 output_ai[205]
*138 output_ai[206]
*139 output_ai[207]
*140 output_ai[208]
*141 output_ai[209]
*142 output_ai[20]
*143 output_ai[210]
*144 output_ai[211]
*145 output_ai[212]
*146 output_ai[213]
*147 output_ai[214]
*148 output_ai[215]
*149 output_ai[216]
*150 output_ai[217]
*151 output_ai[218]
*152 output_ai[219]
*153 output_ai[21]
*154 output_ai[220]
*155 output_ai[221]
*156 output_ai[222]
*157 output_ai[223]
*158 output_ai[224]
*159 output_ai[225]
*160 output_ai[226]
*161 output_ai[227]
*162 output_ai[228]
*163 output_ai[229]
*164 output_ai[22]
*165 output_ai[230]
*166 output_ai[231]
*167 output_ai[232]
*168 output_ai[233]
*169 output_ai[234]
*170 output_ai[235]
*171 output_ai[236]
*172 output_ai[237]
*173 output_ai[238]
*174 output_ai[239]
*175 output_ai[23]
*176 output_ai[24]
*177 output_ai[25]
*178 output_ai[26]
*179 output_ai[27]
*180 output_ai[28]
*181 output_ai[29]
*182 output_ai[2]
*183 output_ai[30]
*184 output_ai[31]
*185 output_ai[32]
*186 output_ai[33]
*187 output_ai[34]
*188 output_ai[35]
*189 output_ai[36]
*190 output_ai[37]
*191 output_ai[38]
*192 output_ai[39]
*193 output_ai[3]
*194 output_ai[40]
*195 output_ai[41]
*196 output_ai[42]
*197 output_ai[43]
*198 output_ai[44]
*199 output_ai[45]
*200 output_ai[46]
*201 output_ai[47]
*202 output_ai[48]
*203 output_ai[49]
*204 output_ai[4]
*205 output_ai[50]
*206 output_ai[51]
*207 output_ai[52]
*208 output_ai[53]
*209 output_ai[54]
*210 output_ai[55]
*211 output_ai[56]
*212 output_ai[57]
*213 output_ai[58]
*214 output_ai[59]
*215 output_ai[5]
*216 output_ai[60]
*217 output_ai[61]
*218 output_ai[62]
*219 output_ai[63]
*220 output_ai[64]
*221 output_ai[65]
*222 output_ai[66]
*223 output_ai[67]
*224 output_ai[68]
*225 output_ai[69]
*226 output_ai[6]
*227 output_ai[70]
*228 output_ai[71]
*229 output_ai[72]
*230 output_ai[73]
*231 output_ai[74]
*232 output_ai[75]
*233 output_ai[76]
*234 output_ai[77]
*235 output_ai[78]
*236 output_ai[79]
*237 output_ai[7]
*238 output_ai[80]
*239 output_ai[81]
*240 output_ai[82]
*241 output_ai[83]
*242 output_ai[84]
*243 output_ai[85]
*244 output_ai[86]
*245 output_ai[87]
*246 output_ai[88]
*247 output_ai[89]
*248 output_ai[8]
*249 output_ai[90]
*250 output_ai[91]
*251 output_ai[92]
*252 output_ai[93]
*253 output_ai[94]
*254 output_ai[95]
*255 output_ai[96]
*256 output_ai[97]
*257 output_ai[98]
*258 output_ai[99]
*259 output_ai[9]
*260 reset
*261 _000_
*262 _001_
*263 _002_
*264 _003_
*265 _004_
*266 _005_
*267 _006_
*268 _007_
*269 _008_
*270 _009_
*271 _010_
*272 _011_
*273 _012_
*274 _013_
*275 _014_
*276 _015_
*277 _016_
*278 _017_
*279 _018_
*280 _019_
*281 _020_
*282 _021_
*283 _022_
*284 _023_
*285 _024_
*286 _025_
*287 _026_
*288 _027_
*289 _028_
*290 _029_
*291 _030_
*292 _031_
*293 _032_
*294 _033_
*295 _034_
*296 _035_
*297 _036_
*298 _037_
*299 _038_
*300 _039_
*301 _040_
*302 _041_
*303 _042_
*304 _043_
*305 _044_
*306 _045_
*307 _046_
*308 _047_
*309 _048_
*310 _049_
*311 _050_
*312 _051_
*313 _052_
*314 _053_
*315 _054_
*316 _055_
*317 _056_
*318 _057_
*319 _058_
*320 _059_
*321 _060_
*322 _061_
*323 _062_
*324 _063_
*325 _064_
*326 _065_
*327 _066_
*328 _067_
*329 _068_
*330 _069_
*331 _070_
*332 _071_
*333 _072_
*334 _073_
*335 _074_
*336 _075_
*337 _076_
*338 _077_
*339 _078_
*340 _079_
*341 _080_
*342 _081_
*343 _082_
*344 _083_
*345 _084_
*346 _085_
*347 _086_
*348 _087_
*349 _088_
*350 _089_
*351 _090_
*352 _091_
*353 _092_
*354 _093_
*355 _094_
*356 _095_
*357 _096_
*358 _097_
*359 _098_
*360 _099_
*361 _100_
*362 _101_
*363 _102_
*364 _103_
*365 _104_
*366 _105_
*367 _106_
*368 _107_
*369 _108_
*370 _109_
*371 _110_
*372 _111_
*373 _112_
*374 _113_
*375 _114_
*376 _115_
*377 _116_
*378 _117_
*379 _118_
*380 _119_
*381 _120_
*382 _121_
*383 _122_
*384 _123_
*385 _124_
*386 _125_
*387 _126_
*388 _127_
*389 _128_
*390 _129_
*391 _130_
*392 _131_
*393 _132_
*394 _133_
*395 _134_
*396 _135_
*397 _136_
*398 _137_
*399 _138_
*400 _139_
*401 _140_
*402 _141_
*403 _142_
*404 _143_
*405 _144_
*406 _145_
*407 _146_
*408 _147_
*409 _148_
*410 _149_
*411 _150_
*412 _151_
*413 _152_
*414 _153_
*415 _154_
*416 _155_
*417 _156_
*418 _157_
*419 _158_
*420 _159_
*421 _160_
*422 _161_
*423 _162_
*424 _163_
*425 _164_
*426 _165_
*427 _166_
*428 _167_
*429 _168_
*430 _169_
*431 _170_
*432 _171_
*433 _172_
*434 _173_
*435 _174_
*436 _175_
*437 _176_
*438 _177_
*439 _178_
*440 _179_
*441 _180_
*442 _181_
*443 _182_
*444 _183_
*445 _184_
*446 _185_
*447 _186_
*448 _187_
*449 _188_
*450 _189_
*451 _190_
*452 _191_
*453 _192_
*454 _193_
*455 _194_
*456 _195_
*457 _196_
*458 _197_
*459 _198_
*460 _199_
*461 _200_
*462 _201_
*463 _202_
*464 _203_
*465 _204_
*466 _205_
*467 _206_
*468 _207_
*469 _208_
*470 _209_
*471 _210_
*472 _211_
*473 _212_
*474 _213_
*475 _214_
*476 _215_
*477 _216_
*478 _217_
*479 _218_
*480 _219_
*481 _220_
*482 _221_
*483 _222_
*484 _223_
*485 _224_
*486 _225_
*487 _226_
*488 _227_
*489 _228_
*490 _229_
*491 _230_
*492 _231_
*493 _232_
*494 _233_
*495 _234_
*496 _235_
*497 _236_
*498 _237_
*499 _238_
*500 _239_
*501 clknet_0_clk
*502 clknet_1_0__leaf_clk
*503 clknet_1_1__leaf_clk
*504 clknet_leaf_0_clk
*505 clknet_leaf_10_clk
*506 clknet_leaf_11_clk
*507 clknet_leaf_12_clk
*508 clknet_leaf_13_clk
*509 clknet_leaf_1_clk
*510 clknet_leaf_2_clk
*511 clknet_leaf_3_clk
*512 clknet_leaf_4_clk
*513 clknet_leaf_5_clk
*514 clknet_leaf_6_clk
*515 clknet_leaf_7_clk
*516 clknet_leaf_8_clk
*517 clknet_leaf_9_clk
*518 net1
*519 net10
*520 net100
*521 net101
*522 net102
*523 net103
*524 net104
*525 net105
*526 net106
*527 net107
*528 net108
*529 net109
*530 net11
*531 net110
*532 net111
*533 net112
*534 net113
*535 net114
*536 net115
*537 net116
*538 net117
*539 net118
*540 net119
*541 net12
*542 net120
*543 net121
*544 net122
*545 net123
*546 net124
*547 net125
*548 net126
*549 net127
*550 net128
*551 net129
*552 net13
*553 net130
*554 net131
*555 net132
*556 net133
*557 net134
*558 net135
*559 net136
*560 net137
*561 net138
*562 net139
*563 net14
*564 net140
*565 net141
*566 net142
*567 net143
*568 net144
*569 net145
*570 net146
*571 net147
*572 net148
*573 net149
*574 net15
*575 net150
*576 net151
*577 net152
*578 net153
*579 net154
*580 net155
*581 net156
*582 net157
*583 net158
*584 net159
*585 net16
*586 net160
*587 net161
*588 net162
*589 net163
*590 net164
*591 net165
*592 net166
*593 net167
*594 net168
*595 net169
*596 net17
*597 net170
*598 net171
*599 net172
*600 net173
*601 net174
*602 net175
*603 net176
*604 net177
*605 net178
*606 net179
*607 net18
*608 net180
*609 net181
*610 net182
*611 net183
*612 net184
*613 net185
*614 net186
*615 net187
*616 net188
*617 net189
*618 net19
*619 net190
*620 net191
*621 net192
*622 net193
*623 net194
*624 net195
*625 net196
*626 net197
*627 net198
*628 net199
*629 net2
*630 net20
*631 net200
*632 net201
*633 net202
*634 net203
*635 net204
*636 net205
*637 net206
*638 net207
*639 net208
*640 net209
*641 net21
*642 net210
*643 net211
*644 net212
*645 net213
*646 net214
*647 net215
*648 net216
*649 net217
*650 net218
*651 net219
*652 net22
*653 net220
*654 net221
*655 net222
*656 net223
*657 net224
*658 net225
*659 net226
*660 net227
*661 net228
*662 net229
*663 net23
*664 net230
*665 net231
*666 net232
*667 net233
*668 net234
*669 net235
*670 net236
*671 net237
*672 net238
*673 net239
*674 net24
*675 net240
*676 net241
*677 net242
*678 net243
*679 net244
*680 net245
*681 net246
*682 net247
*683 net248
*684 net249
*685 net25
*686 net250
*687 net251
*688 net252
*689 net253
*690 net254
*691 net255
*692 net256
*693 net257
*694 net258
*695 net259
*696 net26
*697 net260
*698 net261
*699 net262
*700 net263
*701 net264
*702 net265
*703 net266
*704 net267
*705 net268
*706 net269
*707 net27
*708 net270
*709 net271
*710 net272
*711 net273
*712 net274
*713 net275
*714 net276
*715 net277
*716 net278
*717 net279
*718 net28
*719 net280
*720 net281
*721 net282
*722 net283
*723 net284
*724 net285
*725 net286
*726 net287
*727 net288
*728 net289
*729 net29
*730 net290
*731 net291
*732 net292
*733 net293
*734 net294
*735 net295
*736 net296
*737 net297
*738 net298
*739 net299
*740 net3
*741 net30
*742 net300
*743 net301
*744 net302
*745 net303
*746 net304
*747 net305
*748 net306
*749 net307
*750 net308
*751 net309
*752 net31
*753 net310
*754 net311
*755 net312
*756 net313
*757 net314
*758 net315
*759 net316
*760 net317
*761 net318
*762 net319
*763 net32
*764 net320
*765 net321
*766 net322
*767 net323
*768 net324
*769 net325
*770 net326
*771 net327
*772 net328
*773 net329
*774 net33
*775 net330
*776 net331
*777 net332
*778 net333
*779 net334
*780 net335
*781 net336
*782 net337
*783 net338
*784 net339
*785 net34
*786 net340
*787 net341
*788 net342
*789 net343
*790 net344
*791 net345
*792 net346
*793 net347
*794 net348
*795 net349
*796 net35
*797 net350
*798 net351
*799 net352
*800 net353
*801 net354
*802 net355
*803 net356
*804 net357
*805 net358
*806 net359
*807 net36
*808 net360
*809 net361
*810 net362
*811 net363
*812 net364
*813 net365
*814 net366
*815 net367
*816 net368
*817 net369
*818 net37
*819 net370
*820 net371
*821 net372
*822 net373
*823 net374
*824 net375
*825 net376
*826 net377
*827 net378
*828 net379
*829 net38
*830 net380
*831 net381
*832 net382
*833 net383
*834 net384
*835 net385
*836 net386
*837 net387
*838 net388
*839 net389
*840 net39
*841 net390
*842 net391
*843 net392
*844 net393
*845 net394
*846 net395
*847 net396
*848 net397
*849 net398
*850 net399
*851 net4
*852 net40
*853 net400
*854 net401
*855 net402
*856 net403
*857 net404
*858 net405
*859 net406
*860 net407
*861 net408
*862 net409
*863 net41
*864 net410
*865 net411
*866 net412
*867 net413
*868 net414
*869 net415
*870 net416
*871 net417
*872 net418
*873 net419
*874 net42
*875 net420
*876 net421
*877 net422
*878 net423
*879 net424
*880 net425
*881 net426
*882 net427
*883 net428
*884 net429
*885 net43
*886 net430
*887 net431
*888 net432
*889 net433
*890 net434
*891 net435
*892 net436
*893 net437
*894 net438
*895 net439
*896 net44
*897 net440
*898 net441
*899 net442
*900 net443
*901 net444
*902 net445
*903 net446
*904 net447
*905 net448
*906 net449
*907 net45
*908 net450
*909 net451
*910 net452
*911 net453
*912 net454
*913 net455
*914 net456
*915 net457
*916 net458
*917 net459
*918 net46
*919 net460
*920 net461
*921 net462
*922 net463
*923 net464
*924 net465
*925 net466
*926 net467
*927 net468
*928 net469
*929 net47
*930 net470
*931 net471
*932 net472
*933 net473
*934 net474
*935 net475
*936 net476
*937 net477
*938 net478
*939 net479
*940 net48
*941 net480
*942 net481
*943 net482
*944 net483
*945 net484
*946 net485
*947 net486
*948 net487
*949 net488
*950 net489
*951 net49
*952 net490
*953 net491
*954 net492
*955 net493
*956 net494
*957 net495
*958 net496
*959 net497
*960 net498
*961 net499
*962 net5
*963 net50
*964 net500
*965 net501
*966 net502
*967 net503
*968 net504
*969 net505
*970 net506
*971 net507
*972 net508
*973 net509
*974 net51
*975 net510
*976 net511
*977 net512
*978 net513
*979 net514
*980 net515
*981 net516
*982 net517
*983 net518
*984 net519
*985 net52
*986 net520
*987 net521
*988 net522
*989 net53
*990 net54
*991 net55
*992 net56
*993 net57
*994 net58
*995 net59
*996 net6
*997 net60
*998 net61
*999 net62
*1000 net63
*1001 net64
*1002 net65
*1003 net66
*1004 net67
*1005 net68
*1006 net69
*1007 net7
*1008 net70
*1009 net71
*1010 net72
*1011 net73
*1012 net74
*1013 net75
*1014 net76
*1015 net77
*1016 net78
*1017 net79
*1018 net8
*1019 net80
*1020 net81
*1021 net82
*1022 net83
*1023 net84
*1024 net85
*1025 net86
*1026 net87
*1027 net88
*1028 net89
*1029 net9
*1030 net90
*1031 net91
*1032 net92
*1033 net93
*1034 net94
*1035 net95
*1036 net96
*1037 net97
*1038 net98
*1039 net99
*1040 ANTENNA_1
*1041 ANTENNA_10
*1042 ANTENNA_11
*1043 ANTENNA_12
*1044 ANTENNA_13
*1045 ANTENNA_14
*1046 ANTENNA_15
*1047 ANTENNA_16
*1048 ANTENNA_17
*1049 ANTENNA_18
*1050 ANTENNA_19
*1051 ANTENNA_2
*1052 ANTENNA_20
*1053 ANTENNA_21
*1054 ANTENNA_22
*1055 ANTENNA_23
*1056 ANTENNA_24
*1057 ANTENNA_25
*1058 ANTENNA_26
*1059 ANTENNA_27
*1060 ANTENNA_28
*1061 ANTENNA_29
*1062 ANTENNA_3
*1063 ANTENNA_30
*1064 ANTENNA_31
*1065 ANTENNA_32
*1066 ANTENNA_33
*1067 ANTENNA_34
*1068 ANTENNA_35
*1069 ANTENNA_36
*1070 ANTENNA_37
*1071 ANTENNA_38
*1072 ANTENNA_39
*1073 ANTENNA_4
*1074 ANTENNA_40
*1075 ANTENNA_41
*1076 ANTENNA_42
*1077 ANTENNA_43
*1078 ANTENNA_44
*1079 ANTENNA_45
*1080 ANTENNA_46
*1081 ANTENNA_47
*1082 ANTENNA_48
*1083 ANTENNA_49
*1084 ANTENNA_5
*1085 ANTENNA_50
*1086 ANTENNA_51
*1087 ANTENNA_52
*1088 ANTENNA_53
*1089 ANTENNA_54
*1090 ANTENNA_55
*1091 ANTENNA_56
*1092 ANTENNA_57
*1093 ANTENNA_58
*1094 ANTENNA_59
*1095 ANTENNA_6
*1096 ANTENNA_60
*1097 ANTENNA_61
*1098 ANTENNA_62
*1099 ANTENNA_63
*1100 ANTENNA_7
*1101 ANTENNA_8
*1102 ANTENNA_9
*1103 ANTENNA__240__A
*1104 ANTENNA__243__A
*1105 ANTENNA__247__A
*1106 ANTENNA__248__A
*1107 ANTENNA__250__A
*1108 ANTENNA__258__A
*1109 ANTENNA__259__A
*1110 ANTENNA__269__A
*1111 ANTENNA__270__A
*1112 ANTENNA__271__A
*1113 ANTENNA__272__A
*1114 ANTENNA__273__A
*1115 ANTENNA__274__A
*1116 ANTENNA__275__A
*1117 ANTENNA__276__A
*1118 ANTENNA__277__A
*1119 ANTENNA__278__A
*1120 ANTENNA__279__A
*1121 ANTENNA__280__A
*1122 ANTENNA__281__A
*1123 ANTENNA__282__A
*1124 ANTENNA__287__A
*1125 ANTENNA__288__A
*1126 ANTENNA__290__A
*1127 ANTENNA__291__A
*1128 ANTENNA__293__A
*1129 ANTENNA__294__A
*1130 ANTENNA__295__A
*1131 ANTENNA__296__A
*1132 ANTENNA__297__A
*1133 ANTENNA__298__A
*1134 ANTENNA__301__A
*1135 ANTENNA__302__A
*1136 ANTENNA__303__A
*1137 ANTENNA__304__A
*1138 ANTENNA__305__A
*1139 ANTENNA__306__A
*1140 ANTENNA__307__A
*1141 ANTENNA__308__A
*1142 ANTENNA__309__A
*1143 ANTENNA__310__A
*1144 ANTENNA__311__A
*1145 ANTENNA__312__A
*1146 ANTENNA__313__A
*1147 ANTENNA__315__A
*1148 ANTENNA__316__A
*1149 ANTENNA__317__A
*1150 ANTENNA__318__A
*1151 ANTENNA__320__A
*1152 ANTENNA__321__A
*1153 ANTENNA__346__A
*1154 ANTENNA__349__A
*1155 ANTENNA__351__A
*1156 ANTENNA__360__A
*1157 ANTENNA__362__A
*1158 ANTENNA__365__A
*1159 ANTENNA__366__A
*1160 ANTENNA__367__A
*1161 ANTENNA__368__A
*1162 ANTENNA__369__A
*1163 ANTENNA__370__A
*1164 ANTENNA__372__A
*1165 ANTENNA__373__A
*1166 ANTENNA__375__A
*1167 ANTENNA__377__A
*1168 ANTENNA__379__A
*1169 ANTENNA__380__A
*1170 ANTENNA__382__A
*1171 ANTENNA__383__A
*1172 ANTENNA__384__A
*1173 ANTENNA__385__A
*1174 ANTENNA__386__A
*1175 ANTENNA__387__A
*1176 ANTENNA__388__A
*1177 ANTENNA__389__A
*1178 ANTENNA__390__A
*1179 ANTENNA__391__A
*1180 ANTENNA__392__A
*1181 ANTENNA__393__A
*1182 ANTENNA__394__A
*1183 ANTENNA__395__A
*1184 ANTENNA__396__A
*1185 ANTENNA__397__A
*1186 ANTENNA__398__A
*1187 ANTENNA__399__A
*1188 ANTENNA__400__A
*1189 ANTENNA__401__A
*1190 ANTENNA__404__A
*1191 ANTENNA__405__A
*1192 ANTENNA__406__A
*1193 ANTENNA__409__A
*1194 ANTENNA__426__A
*1195 ANTENNA__431__A
*1196 ANTENNA__434__A
*1197 ANTENNA__435__A
*1198 ANTENNA__442__A
*1199 ANTENNA__447__A
*1200 ANTENNA__450__A
*1201 ANTENNA__451__A
*1202 ANTENNA__453__A
*1203 ANTENNA__454__A
*1204 ANTENNA__455__A
*1205 ANTENNA__456__A
*1206 ANTENNA__457__A
*1207 ANTENNA__458__A
*1208 ANTENNA__459__A
*1209 ANTENNA__460__A
*1210 ANTENNA__461__A
*1211 ANTENNA__462__A
*1212 ANTENNA__463__A
*1213 ANTENNA__464__A
*1214 ANTENNA__465__A
*1215 ANTENNA__466__A
*1216 ANTENNA__467__A
*1217 ANTENNA__468__A
*1218 ANTENNA__469__A
*1219 ANTENNA__470__A
*1220 ANTENNA__471__A
*1221 ANTENNA__472__A
*1222 ANTENNA__473__A
*1223 ANTENNA__474__A
*1224 ANTENNA__475__A
*1225 ANTENNA__476__A
*1226 ANTENNA__477__A
*1227 ANTENNA__478__A
*1228 ANTENNA__479__A
*1229 ANTENNA__482__CLK
*1230 ANTENNA__483__CLK
*1231 ANTENNA__485__CLK
*1232 ANTENNA__486__CLK
*1233 ANTENNA__488__CLK
*1234 ANTENNA__489__CLK
*1235 ANTENNA__490__CLK
*1236 ANTENNA__491__CLK
*1237 ANTENNA__492__CLK
*1238 ANTENNA__493__CLK
*1239 ANTENNA__496__CLK
*1240 ANTENNA__497__CLK
*1241 ANTENNA__499__CLK
*1242 ANTENNA__500__CLK
*1243 ANTENNA__501__CLK
*1244 ANTENNA__502__CLK
*1245 ANTENNA__503__CLK
*1246 ANTENNA__504__CLK
*1247 ANTENNA__505__CLK
*1248 ANTENNA__506__CLK
*1249 ANTENNA__507__CLK
*1250 ANTENNA__508__CLK
*1251 ANTENNA__509__CLK
*1252 ANTENNA__510__CLK
*1253 ANTENNA__511__CLK
*1254 ANTENNA__512__CLK
*1255 ANTENNA__513__CLK
*1256 ANTENNA__514__CLK
*1257 ANTENNA__515__CLK
*1258 ANTENNA__516__CLK
*1259 ANTENNA__517__CLK
*1260 ANTENNA__518__CLK
*1261 ANTENNA__519__CLK
*1262 ANTENNA__520__CLK
*1263 ANTENNA__521__CLK
*1264 ANTENNA__522__CLK
*1265 ANTENNA__523__CLK
*1266 ANTENNA__524__CLK
*1267 ANTENNA__525__CLK
*1268 ANTENNA__526__CLK
*1269 ANTENNA__527__CLK
*1270 ANTENNA__528__CLK
*1271 ANTENNA__529__CLK
*1272 ANTENNA__530__CLK
*1273 ANTENNA__531__CLK
*1274 ANTENNA__532__CLK
*1275 ANTENNA__533__CLK
*1276 ANTENNA__534__CLK
*1277 ANTENNA__535__CLK
*1278 ANTENNA__536__CLK
*1279 ANTENNA__537__CLK
*1280 ANTENNA__538__CLK
*1281 ANTENNA__539__CLK
*1282 ANTENNA__540__CLK
*1283 ANTENNA__541__CLK
*1284 ANTENNA__542__CLK
*1285 ANTENNA__543__CLK
*1286 ANTENNA__544__CLK
*1287 ANTENNA__545__CLK
*1288 ANTENNA__546__CLK
*1289 ANTENNA__547__CLK
*1290 ANTENNA__548__CLK
*1291 ANTENNA__549__CLK
*1292 ANTENNA__550__CLK
*1293 ANTENNA__551__CLK
*1294 ANTENNA__552__CLK
*1295 ANTENNA__553__CLK
*1296 ANTENNA__554__CLK
*1297 ANTENNA__555__CLK
*1298 ANTENNA__556__CLK
*1299 ANTENNA__557__CLK
*1300 ANTENNA__558__CLK
*1301 ANTENNA__559__CLK
*1302 ANTENNA__560__CLK
*1303 ANTENNA__561__CLK
*1304 ANTENNA__562__CLK
*1305 ANTENNA__563__CLK
*1306 ANTENNA__564__CLK
*1307 ANTENNA__565__CLK
*1308 ANTENNA__566__CLK
*1309 ANTENNA__567__CLK
*1310 ANTENNA__568__CLK
*1311 ANTENNA__569__CLK
*1312 ANTENNA__570__CLK
*1313 ANTENNA__571__CLK
*1314 ANTENNA__572__CLK
*1315 ANTENNA__573__CLK
*1316 ANTENNA__574__CLK
*1317 ANTENNA__575__CLK
*1318 ANTENNA__576__CLK
*1319 ANTENNA__577__CLK
*1320 ANTENNA__578__CLK
*1321 ANTENNA__579__CLK
*1322 ANTENNA__580__CLK
*1323 ANTENNA__581__CLK
*1324 ANTENNA__582__CLK
*1325 ANTENNA__583__CLK
*1326 ANTENNA__584__CLK
*1327 ANTENNA__585__CLK
*1328 ANTENNA__586__CLK
*1329 ANTENNA__587__CLK
*1330 ANTENNA__588__CLK
*1331 ANTENNA__589__CLK
*1332 ANTENNA__590__CLK
*1333 ANTENNA__591__CLK
*1334 ANTENNA__592__CLK
*1335 ANTENNA__593__CLK
*1336 ANTENNA__594__CLK
*1337 ANTENNA__595__CLK
*1338 ANTENNA__596__CLK
*1339 ANTENNA__597__CLK
*1340 ANTENNA__598__CLK
*1341 ANTENNA__599__CLK
*1342 ANTENNA__600__CLK
*1343 ANTENNA__601__CLK
*1344 ANTENNA__602__CLK
*1345 ANTENNA__603__CLK
*1346 ANTENNA__604__CLK
*1347 ANTENNA__605__CLK
*1348 ANTENNA__606__CLK
*1349 ANTENNA__607__CLK
*1350 ANTENNA__608__CLK
*1351 ANTENNA__609__CLK
*1352 ANTENNA__610__CLK
*1353 ANTENNA__611__CLK
*1354 ANTENNA__612__CLK
*1355 ANTENNA__613__CLK
*1356 ANTENNA__614__CLK
*1357 ANTENNA__615__CLK
*1358 ANTENNA__616__CLK
*1359 ANTENNA__617__CLK
*1360 ANTENNA__618__CLK
*1361 ANTENNA__619__CLK
*1362 ANTENNA__620__CLK
*1363 ANTENNA__621__CLK
*1364 ANTENNA__622__CLK
*1365 ANTENNA__623__CLK
*1366 ANTENNA__624__CLK
*1367 ANTENNA__625__CLK
*1368 ANTENNA__626__CLK
*1369 ANTENNA__627__CLK
*1370 ANTENNA__628__CLK
*1371 ANTENNA__629__CLK
*1372 ANTENNA__630__CLK
*1373 ANTENNA__631__CLK
*1374 ANTENNA__632__CLK
*1375 ANTENNA__633__CLK
*1376 ANTENNA__634__CLK
*1377 ANTENNA__635__CLK
*1378 ANTENNA__636__CLK
*1379 ANTENNA__637__CLK
*1380 ANTENNA__638__CLK
*1381 ANTENNA__639__CLK
*1382 ANTENNA__640__CLK
*1383 ANTENNA__641__CLK
*1384 ANTENNA__642__CLK
*1385 ANTENNA__643__CLK
*1386 ANTENNA__644__CLK
*1387 ANTENNA__645__CLK
*1388 ANTENNA__646__CLK
*1389 ANTENNA__647__CLK
*1390 ANTENNA__648__CLK
*1391 ANTENNA__649__CLK
*1392 ANTENNA__650__CLK
*1393 ANTENNA__651__CLK
*1394 ANTENNA__652__CLK
*1395 ANTENNA__653__CLK
*1396 ANTENNA__654__CLK
*1397 ANTENNA__655__CLK
*1398 ANTENNA__656__CLK
*1399 ANTENNA__657__CLK
*1400 ANTENNA__658__CLK
*1401 ANTENNA__659__CLK
*1402 ANTENNA__660__CLK
*1403 ANTENNA__661__CLK
*1404 ANTENNA__662__CLK
*1405 ANTENNA__663__CLK
*1406 ANTENNA__664__CLK
*1407 ANTENNA__665__CLK
*1408 ANTENNA__666__CLK
*1409 ANTENNA__667__CLK
*1410 ANTENNA__668__CLK
*1411 ANTENNA__669__CLK
*1412 ANTENNA__670__CLK
*1413 ANTENNA__671__CLK
*1414 ANTENNA__672__CLK
*1415 ANTENNA__673__CLK
*1416 ANTENNA__674__CLK
*1417 ANTENNA__675__CLK
*1418 ANTENNA__676__CLK
*1419 ANTENNA__677__CLK
*1420 ANTENNA__678__CLK
*1421 ANTENNA__679__CLK
*1422 ANTENNA__680__CLK
*1423 ANTENNA__681__CLK
*1424 ANTENNA__682__CLK
*1425 ANTENNA__683__CLK
*1426 ANTENNA__684__CLK
*1427 ANTENNA__685__CLK
*1428 ANTENNA__686__CLK
*1429 ANTENNA__687__CLK
*1430 ANTENNA__688__CLK
*1431 ANTENNA__689__CLK
*1432 ANTENNA__690__CLK
*1433 ANTENNA__691__CLK
*1434 ANTENNA__692__CLK
*1435 ANTENNA__693__CLK
*1436 ANTENNA__694__CLK
*1437 ANTENNA__695__CLK
*1438 ANTENNA__696__CLK
*1439 ANTENNA__697__CLK
*1440 ANTENNA__698__CLK
*1441 ANTENNA__699__CLK
*1442 ANTENNA__700__CLK
*1443 ANTENNA__701__CLK
*1444 ANTENNA__702__CLK
*1445 ANTENNA__702__D
*1446 ANTENNA__703__CLK
*1447 ANTENNA__703__D
*1448 ANTENNA__704__CLK
*1449 ANTENNA__704__D
*1450 ANTENNA__705__CLK
*1451 ANTENNA__705__D
*1452 ANTENNA__706__CLK
*1453 ANTENNA__706__D
*1454 ANTENNA__707__CLK
*1455 ANTENNA__707__D
*1456 ANTENNA__708__CLK
*1457 ANTENNA__708__D
*1458 ANTENNA__709__CLK
*1459 ANTENNA__709__D
*1460 ANTENNA__710__D
*1461 ANTENNA__711__CLK
*1462 ANTENNA__711__D
*1463 ANTENNA__712__CLK
*1464 ANTENNA__712__D
*1465 ANTENNA__713__CLK
*1466 ANTENNA__713__D
*1467 ANTENNA__714__CLK
*1468 ANTENNA__714__D
*1469 ANTENNA__715__D
*1470 ANTENNA__716__CLK
*1471 ANTENNA__716__D
*1472 ANTENNA__717__D
*1473 ANTENNA_clkbuf_0_clk_A
*1474 ANTENNA_clkbuf_1_0__f_clk_A
*1475 ANTENNA_clkbuf_1_1__f_clk_A
*1476 ANTENNA_clkbuf_leaf_0_clk_A
*1477 ANTENNA_clkbuf_leaf_10_clk_A
*1478 ANTENNA_clkbuf_leaf_11_clk_A
*1479 ANTENNA_clkbuf_leaf_12_clk_A
*1480 ANTENNA_clkbuf_leaf_13_clk_A
*1481 ANTENNA_clkbuf_leaf_1_clk_A
*1482 ANTENNA_clkbuf_leaf_2_clk_A
*1483 ANTENNA_clkbuf_leaf_3_clk_A
*1484 ANTENNA_clkbuf_leaf_4_clk_A
*1485 ANTENNA_clkbuf_leaf_5_clk_A
*1486 ANTENNA_clkbuf_leaf_6_clk_A
*1487 ANTENNA_clkbuf_leaf_7_clk_A
*1488 ANTENNA_clkbuf_leaf_8_clk_A
*1489 ANTENNA_clkbuf_leaf_9_clk_A
*1490 ANTENNA_fanout264_A
*1491 ANTENNA_fanout265_A
*1492 ANTENNA_fanout266_A
*1493 ANTENNA_fanout267_A
*1494 ANTENNA_fanout271_A
*1495 ANTENNA_fanout272_A
*1496 ANTENNA_fanout273_A
*1497 ANTENNA_fanout274_A
*1498 ANTENNA_fanout275_A
*1499 ANTENNA_fanout276_A
*1500 ANTENNA_fanout277_A
*1501 ANTENNA_fanout278_A
*1502 ANTENNA_fanout279_A
*1503 ANTENNA_fanout283_A
*1504 ANTENNA_fanout284_A
*1505 ANTENNA_fanout285_A
*1506 ANTENNA_fanout286_A
*1507 ANTENNA_fanout287_A
*1508 ANTENNA_fanout288_A
*1509 ANTENNA_fanout289_A
*1510 ANTENNA_fanout290_A
*1511 ANTENNA_fanout291_A
*1512 ANTENNA_fanout292_A
*1513 ANTENNA_fanout293_A
*1514 ANTENNA_hold10_A
*1515 ANTENNA_hold11_A
*1516 ANTENNA_hold148_A
*1517 ANTENNA_hold14_A
*1518 ANTENNA_hold15_A
*1519 ANTENNA_hold16_A
*1520 ANTENNA_hold18_A
*1521 ANTENNA_hold19_A
*1522 ANTENNA_hold1_A
*1523 ANTENNA_hold205_A
*1524 ANTENNA_hold206_A
*1525 ANTENNA_hold209_A
*1526 ANTENNA_hold215_A
*1527 ANTENNA_hold21_A
*1528 ANTENNA_hold24_A
*1529 ANTENNA_hold9_A
*1530 ANTENNA_input10_A
*1531 ANTENNA_input11_A
*1532 ANTENNA_input12_A
*1533 ANTENNA_input13_A
*1534 ANTENNA_input14_A
*1535 ANTENNA_input15_A
*1536 ANTENNA_input16_A
*1537 ANTENNA_input17_A
*1538 ANTENNA_input1_A
*1539 ANTENNA_input2_A
*1540 ANTENNA_input3_A
*1541 ANTENNA_input4_A
*1542 ANTENNA_input5_A
*1543 ANTENNA_input6_A
*1544 ANTENNA_input7_A
*1545 ANTENNA_input8_A
*1546 ANTENNA_input9_A
*1547 ANTENNA_output179_A
*1548 ANTENNA_output180_A
*1549 ANTENNA_output182_A
*1550 ANTENNA_output191_A
*1551 ANTENNA_output202_A
*1552 ANTENNA_output213_A
*1553 ANTENNA_output224_A
*1554 ANTENNA_output235_A
*1555 ANTENNA_output246_A
*1556 ANTENNA_output257_A
*1557 ANTENNA_output29_A
*1558 ANTENNA_output40_A
*1559 ANTENNA_output51_A
*1560 ANTENNA_output62_A
*1561 ANTENNA_output73_A
*1562 ANTENNA_output84_A
*1563 ANTENNA_wire258_A
*1564 ANTENNA_wire259_A
*1565 ANTENNA_wire260_A
*1566 ANTENNA_wire261_A
*1567 ANTENNA_wire262_A
*1568 ANTENNA_wire263_A
*1569 ANTENNA_wire294_A
*1570 ANTENNA_wire295_A
*1571 ANTENNA_wire296_A
*1572 ANTENNA_wire297_A
*1573 ANTENNA_wire298_A
*1574 FILLER_0_0_1006
*1575 FILLER_0_0_1033
*1576 FILLER_0_0_1055
*1577 FILLER_0_0_1063
*1578 FILLER_0_0_1077
*1579 FILLER_0_0_1090
*1580 FILLER_0_0_1105
*1581 FILLER_0_0_1118
*1582 FILLER_0_0_1139
*1583 FILLER_0_0_1147
*1584 FILLER_0_0_1161
*1585 FILLER_0_0_1168
*1586 FILLER_0_0_1175
*1587 FILLER_0_0_1189
*1588 FILLER_0_0_1202
*1589 FILLER_0_0_1217
*1590 FILLER_0_0_1224
*1591 FILLER_0_0_123
*1592 FILLER_0_0_1231
*1593 FILLER_0_0_1251
*1594 FILLER_0_0_1259
*1595 FILLER_0_0_1273
*1596 FILLER_0_0_1280
*1597 FILLER_0_0_1287
*1598 FILLER_0_0_1301
*1599 FILLER_0_0_1314
*1600 FILLER_0_0_132
*1601 FILLER_0_0_1341
*1602 FILLER_0_0_1363
*1603 FILLER_0_0_1371
*1604 FILLER_0_0_1385
*1605 FILLER_0_0_139
*1606 FILLER_0_0_1398
*1607 FILLER_0_0_1413
*1608 FILLER_0_0_1426
*1609 FILLER_0_0_1453
*1610 FILLER_0_0_1475
*1611 FILLER_0_0_1483
*1612 FILLER_0_0_15
*1613 FILLER_0_0_1509
*1614 FILLER_0_0_153
*1615 FILLER_0_0_1537
*1616 FILLER_0_0_1565
*1617 FILLER_0_0_1587
*1618 FILLER_0_0_1595
*1619 FILLER_0_0_160
*1620 FILLER_0_0_1609
*1621 FILLER_0_0_1616
*1622 FILLER_0_0_1623
*1623 FILLER_0_0_1637
*1624 FILLER_0_0_1644
*1625 FILLER_0_0_1651
*1626 FILLER_0_0_1665
*1627 FILLER_0_0_167
*1628 FILLER_0_0_1672
*1629 FILLER_0_0_1679
*1630 FILLER_0_0_169
*1631 FILLER_0_0_1693
*1632 FILLER_0_0_1700
*1633 FILLER_0_0_1709
*1634 FILLER_0_0_197
*1635 FILLER_0_0_227
*1636 FILLER_0_0_235
*1637 FILLER_0_0_244
*1638 FILLER_0_0_251
*1639 FILLER_0_0_265
*1640 FILLER_0_0_272
*1641 FILLER_0_0_279
*1642 FILLER_0_0_29
*1643 FILLER_0_0_293
*1644 FILLER_0_0_3
*1645 FILLER_0_0_300
*1646 FILLER_0_0_307
*1647 FILLER_0_0_309
*1648 FILLER_0_0_337
*1649 FILLER_0_0_347
*1650 FILLER_0_0_354
*1651 FILLER_0_0_363
*1652 FILLER_0_0_389
*1653 FILLER_0_0_393
*1654 FILLER_0_0_421
*1655 FILLER_0_0_431
*1656 FILLER_0_0_440
*1657 FILLER_0_0_447
*1658 FILLER_0_0_449
*1659 FILLER_0_0_459
*1660 FILLER_0_0_466
*1661 FILLER_0_0_475
*1662 FILLER_0_0_477
*1663 FILLER_0_0_487
*1664 FILLER_0_0_496
*1665 FILLER_0_0_503
*1666 FILLER_0_0_505
*1667 FILLER_0_0_533
*1668 FILLER_0_0_561
*1669 FILLER_0_0_571
*1670 FILLER_0_0_578
*1671 FILLER_0_0_587
*1672 FILLER_0_0_589
*1673 FILLER_0_0_59
*1674 FILLER_0_0_599
*1675 FILLER_0_0_613
*1676 FILLER_0_0_617
*1677 FILLER_0_0_627
*1678 FILLER_0_0_634
*1679 FILLER_0_0_643
*1680 FILLER_0_0_645
*1681 FILLER_0_0_673
*1682 FILLER_0_0_701
*1683 FILLER_0_0_711
*1684 FILLER_0_0_725
*1685 FILLER_0_0_729
*1686 FILLER_0_0_739
*1687 FILLER_0_0_746
*1688 FILLER_0_0_755
*1689 FILLER_0_0_757
*1690 FILLER_0_0_767
*1691 FILLER_0_0_781
*1692 FILLER_0_0_797
*1693 FILLER_0_0_804
*1694 FILLER_0_0_811
*1695 FILLER_0_0_825
*1696 FILLER_0_0_832
*1697 FILLER_0_0_839
*1698 FILLER_0_0_841
*1699 FILLER_0_0_851
*1700 FILLER_0_0_860
*1701 FILLER_0_0_867
*1702 FILLER_0_0_87
*1703 FILLER_0_0_893
*1704 FILLER_0_0_909
*1705 FILLER_0_0_922
*1706 FILLER_0_0_937
*1707 FILLER_0_0_944
*1708 FILLER_0_0_951
*1709 FILLER_0_0_965
*1710 FILLER_0_0_978
*1711 FILLER_0_0_993
*1712 FILLER_0_100_1005
*1713 FILLER_0_100_1017
*1714 FILLER_0_100_1029
*1715 FILLER_0_100_1035
*1716 FILLER_0_100_1037
*1717 FILLER_0_100_1049
*1718 FILLER_0_100_1061
*1719 FILLER_0_100_1073
*1720 FILLER_0_100_1085
*1721 FILLER_0_100_109
*1722 FILLER_0_100_1091
*1723 FILLER_0_100_1093