* NGSPICE file created from shifter.ext - technology: sky130A

* Black-box entry subcircuit for sky130_fd_sc_hd__decap_6 abstract view
.subckt sky130_fd_sc_hd__decap_6 VGND VNB VPB VPWR
.ends

* Black-box entry subcircuit for sky130_ef_sc_hd__decap_12 abstract view
.subckt sky130_ef_sc_hd__decap_12 VPWR VGND VPB VNB
.ends

* Black-box entry subcircuit for sky130_fd_sc_hd__fill_1 abstract view
.subckt sky130_fd_sc_hd__fill_1 VGND VNB VPB VPWR
.ends

* Black-box entry subcircuit for sky130_fd_sc_hd__decap_8 abstract view
.subckt sky130_fd_sc_hd__decap_8 VGND VNB VPB VPWR
.ends

* Black-box entry subcircuit for sky130_fd_sc_hd__dfrtp_1 abstract view
.subckt sky130_fd_sc_hd__dfrtp_1 CLK D RESET_B VGND VNB VPB VPWR Q
.ends

* Black-box entry subcircuit for sky130_fd_sc_hd__inv_2 abstract view
.subckt sky130_fd_sc_hd__inv_2 A VGND VNB VPB VPWR Y
.ends

* Black-box entry subcircuit for sky130_fd_sc_hd__tapvpwrvgnd_1 abstract view
.subckt sky130_fd_sc_hd__tapvpwrvgnd_1 VGND VPWR
.ends

* Black-box entry subcircuit for sky130_fd_sc_hd__decap_4 abstract view
.subckt sky130_fd_sc_hd__decap_4 VGND VNB VPB VPWR
.ends

* Black-box entry subcircuit for sky130_fd_sc_hd__dlygate4sd3_1 abstract view
.subckt sky130_fd_sc_hd__dlygate4sd3_1 A VGND VNB VPB VPWR X
.ends

* Black-box entry subcircuit for sky130_fd_sc_hd__fill_2 abstract view
.subckt sky130_fd_sc_hd__fill_2 VGND VNB VPB VPWR
.ends

* Black-box entry subcircuit for sky130_fd_sc_hd__buf_2 abstract view
.subckt sky130_fd_sc_hd__buf_2 A VGND VNB VPB VPWR X
.ends

* Black-box entry subcircuit for sky130_fd_sc_hd__decap_3 abstract view
.subckt sky130_fd_sc_hd__decap_3 VGND VNB VPB VPWR
.ends

* Black-box entry subcircuit for sky130_fd_sc_hd__dfrtp_4 abstract view
.subckt sky130_fd_sc_hd__dfrtp_4 CLK D RESET_B VGND VNB VPB VPWR Q
.ends

* Black-box entry subcircuit for sky130_fd_sc_hd__buf_4 abstract view
.subckt sky130_fd_sc_hd__buf_4 A VGND VNB VPB VPWR X
.ends

* Black-box entry subcircuit for sky130_fd_sc_hd__clkbuf_8 abstract view
.subckt sky130_fd_sc_hd__clkbuf_8 A VGND VNB VPB VPWR X
.ends

* Black-box entry subcircuit for sky130_fd_sc_hd__clkbuf_4 abstract view
.subckt sky130_fd_sc_hd__clkbuf_4 A VGND VNB VPB VPWR X
.ends

* Black-box entry subcircuit for sky130_fd_sc_hd__clkbuf_16 abstract view
.subckt sky130_fd_sc_hd__clkbuf_16 A VGND VNB VPB VPWR X
.ends

* Black-box entry subcircuit for sky130_fd_sc_hd__clkbuf_2 abstract view
.subckt sky130_fd_sc_hd__clkbuf_2 A VGND VNB VPB VPWR X
.ends

* Black-box entry subcircuit for sky130_fd_sc_hd__buf_1 abstract view
.subckt sky130_fd_sc_hd__buf_1 A VGND VNB VPB VPWR X
.ends

* Black-box entry subcircuit for sky130_fd_sc_hd__dlymetal6s2s_1 abstract view
.subckt sky130_fd_sc_hd__dlymetal6s2s_1 A VGND VNB VPB VPWR X
.ends

* Black-box entry subcircuit for sky130_fd_sc_hd__dfrtp_2 abstract view
.subckt sky130_fd_sc_hd__dfrtp_2 CLK D RESET_B VGND VNB VPB VPWR Q
.ends

* Black-box entry subcircuit for sky130_fd_sc_hd__clkbuf_1 abstract view
.subckt sky130_fd_sc_hd__clkbuf_1 A VGND VNB VPB VPWR X
.ends

* Black-box entry subcircuit for sky130_fd_sc_hd__diode_2 abstract view
.subckt sky130_fd_sc_hd__diode_2 DIODE VGND VNB VPB VPWR
.ends

.subckt shifter VGND VPWR clk input_pc[0] input_pc[10] input_pc[11] input_pc[12] input_pc[13]
+ input_pc[14] input_pc[15] input_pc[1] input_pc[2] input_pc[3] input_pc[4] input_pc[5]
+ input_pc[6] input_pc[7] input_pc[8] input_pc[9] output_ai[0] output_ai[100] output_ai[101]
+ output_ai[102] output_ai[103] output_ai[104] output_ai[105] output_ai[106] output_ai[107]
+ output_ai[108] output_ai[109] output_ai[10] output_ai[110] output_ai[111] output_ai[112]
+ output_ai[113] output_ai[114] output_ai[115] output_ai[116] output_ai[117] output_ai[118]
+ output_ai[119] output_ai[11] output_ai[120] output_ai[121] output_ai[122] output_ai[123]
+ output_ai[124] output_ai[125] output_ai[126] output_ai[127] output_ai[128] output_ai[129]
+ output_ai[12] output_ai[130] output_ai[131] output_ai[132] output_ai[133] output_ai[134]
+ output_ai[135] output_ai[136] output_ai[137] output_ai[138] output_ai[139] output_ai[13]
+ output_ai[140] output_ai[141] output_ai[142] output_ai[143] output_ai[144] output_ai[145]
+ output_ai[146] output_ai[147] output_ai[148] output_ai[149] output_ai[14] output_ai[150]
+ output_ai[151] output_ai[152] output_ai[153] output_ai[154] output_ai[155] output_ai[156]
+ output_ai[157] output_ai[158] output_ai[159] output_ai[15] output_ai[160] output_ai[161]
+ output_ai[162] output_ai[163] output_ai[164] output_ai[165] output_ai[166] output_ai[167]
+ output_ai[168] output_ai[169] output_ai[16] output_ai[170] output_ai[171] output_ai[172]
+ output_ai[173] output_ai[174] output_ai[175] output_ai[176] output_ai[177] output_ai[178]
+ output_ai[179] output_ai[17] output_ai[180] output_ai[181] output_ai[182] output_ai[183]
+ output_ai[184] output_ai[185] output_ai[186] output_ai[187] output_ai[188] output_ai[189]
+ output_ai[18] output_ai[190] output_ai[191] output_ai[192] output_ai[193] output_ai[194]
+ output_ai[195] output_ai[196] output_ai[197] output_ai[198] output_ai[199] output_ai[19]
+ output_ai[1] output_ai[200] output_ai[201] output_ai[202] output_ai[203] output_ai[204]
+ output_ai[205] output_ai[206] output_ai[207] output_ai[208] output_ai[209] output_ai[20]
+ output_ai[210] output_ai[211] output_ai[212] output_ai[213] output_ai[214] output_ai[215]
+ output_ai[216] output_ai[217] output_ai[218] output_ai[219] output_ai[21] output_ai[220]
+ output_ai[221] output_ai[222] output_ai[223] output_ai[224] output_ai[225] output_ai[226]
+ output_ai[227] output_ai[228] output_ai[229] output_ai[22] output_ai[230] output_ai[231]
+ output_ai[232] output_ai[233] output_ai[234] output_ai[235] output_ai[236] output_ai[237]
+ output_ai[238] output_ai[239] output_ai[23] output_ai[24] output_ai[25] output_ai[26]
+ output_ai[27] output_ai[28] output_ai[29] output_ai[2] output_ai[30] output_ai[31]
+ output_ai[32] output_ai[33] output_ai[34] output_ai[35] output_ai[36] output_ai[37]
+ output_ai[38] output_ai[39] output_ai[3] output_ai[40] output_ai[41] output_ai[42]
+ output_ai[43] output_ai[44] output_ai[45] output_ai[46] output_ai[47] output_ai[48]
+ output_ai[49] output_ai[4] output_ai[50] output_ai[51] output_ai[52] output_ai[53]
+ output_ai[54] output_ai[55] output_ai[56] output_ai[57] output_ai[58] output_ai[59]
+ output_ai[5] output_ai[60] output_ai[61] output_ai[62] output_ai[63] output_ai[64]
+ output_ai[65] output_ai[66] output_ai[67] output_ai[68] output_ai[69] output_ai[6]
+ output_ai[70] output_ai[71] output_ai[72] output_ai[73] output_ai[74] output_ai[75]
+ output_ai[76] output_ai[77] output_ai[78] output_ai[79] output_ai[7] output_ai[80]
+ output_ai[81] output_ai[82] output_ai[83] output_ai[84] output_ai[85] output_ai[86]
+ output_ai[87] output_ai[88] output_ai[89] output_ai[8] output_ai[90] output_ai[91]
+ output_ai[92] output_ai[93] output_ai[94] output_ai[95] output_ai[96] output_ai[97]
+ output_ai[98] output_ai[99] output_ai[9] reset
XFILLER_0_94_77 VGND VGND VPWR VPWR sky130_fd_sc_hd__decap_6
XFILLER_0_89_461 VPWR VGND VPWR VGND sky130_ef_sc_hd__decap_12
XFILLER_0_76_133 VGND VGND VPWR VPWR sky130_fd_sc_hd__decap_6
XFILLER_0_76_177 VPWR VGND VPWR VGND sky130_ef_sc_hd__decap_12
XFILLER_0_91_125 VPWR VGND VPWR VGND sky130_ef_sc_hd__decap_12
XFILLER_0_57_391 VGND VGND VPWR VPWR sky130_fd_sc_hd__fill_1
XFILLER_0_91_169 VPWR VGND VPWR VGND sky130_ef_sc_hd__decap_12
XFILLER_0_45_553 VGND VGND VPWR VPWR sky130_fd_sc_hd__decap_6
XFILLER_0_60_501 VPWR VGND VPWR VGND sky130_ef_sc_hd__decap_12
XFILLER_0_60_545 VPWR VGND VPWR VGND sky130_ef_sc_hd__decap_12
XFILLER_0_20_409 VGND VGND VPWR VPWR sky130_fd_sc_hd__decap_8
XFILLER_0_13_483 VPWR VGND VPWR VGND sky130_ef_sc_hd__decap_12
XFILLER_0_2_7 VGND VGND VPWR VPWR sky130_fd_sc_hd__fill_1
X_501_ clknet_leaf_4_clk net479 _021_ VGND VGND VPWR VPWR net190 sky130_fd_sc_hd__dfrtp_1
X_432_ net276 VGND VGND VPWR VPWR _147_ sky130_fd_sc_hd__inv_2
XTAP_TAPCELL_ROW_28_489 VGND VPWR sky130_fd_sc_hd__tapvpwrvgnd_1
XFILLER_0_67_111 VGND VGND VPWR VPWR sky130_fd_sc_hd__fill_1
XFILLER_0_28_509 VGND VGND VPWR VPWR sky130_fd_sc_hd__fill_1
XFILLER_0_55_317 VPWR VGND VPWR VGND sky130_ef_sc_hd__decap_12
XFILLER_0_95_497 VGND VGND VPWR VPWR sky130_fd_sc_hd__decap_6
X_363_ net262 VGND VGND VPWR VPWR _078_ sky130_fd_sc_hd__inv_2
XTAP_TAPCELL_ROW_11_323 VGND VPWR sky130_fd_sc_hd__tapvpwrvgnd_1
X_294_ net266 VGND VGND VPWR VPWR _009_ sky130_fd_sc_hd__inv_2
XFILLER_0_70_309 VPWR VGND VPWR VGND sky130_ef_sc_hd__decap_12
XFILLER_0_63_361 VPWR VGND VPWR VGND sky130_ef_sc_hd__decap_12
XFILLER_0_48_15 VPWR VGND VPWR VGND sky130_ef_sc_hd__decap_12
XFILLER_0_3_39 VPWR VGND VPWR VGND sky130_ef_sc_hd__decap_12
XTAP_TAPCELL_ROW_19_401 VGND VPWR sky130_fd_sc_hd__tapvpwrvgnd_1
XFILLER_0_58_133 VGND VGND VPWR VPWR sky130_fd_sc_hd__decap_6
XFILLER_0_86_475 VGND VGND VPWR VPWR sky130_fd_sc_hd__fill_1
XFILLER_0_13_40 VPWR VGND VPWR VGND sky130_ef_sc_hd__decap_12
XFILLER_0_58_177 VPWR VGND VPWR VGND sky130_ef_sc_hd__decap_12
XFILLER_0_73_125 VPWR VGND VPWR VGND sky130_ef_sc_hd__decap_12
XFILLER_0_73_169 VPWR VGND VPWR VGND sky130_ef_sc_hd__decap_12
XFILLER_0_14_214 VPWR VGND VPWR VGND sky130_ef_sc_hd__decap_12
XFILLER_0_42_501 VPWR VGND VPWR VGND sky130_ef_sc_hd__decap_12
XFILLER_0_89_55 VGND VGND VPWR VPWR sky130_fd_sc_hd__fill_1
XFILLER_0_42_545 VPWR VGND VPWR VGND sky130_ef_sc_hd__decap_12
XFILLER_0_49_111 VGND VGND VPWR VPWR sky130_fd_sc_hd__fill_1
XFILLER_0_92_401 VPWR VGND VPWR VGND sky130_ef_sc_hd__decap_12
XTAP_TAPCELL_ROW_81_1023 VGND VPWR sky130_fd_sc_hd__tapvpwrvgnd_1
XFILLER_0_77_497 VGND VGND VPWR VPWR sky130_fd_sc_hd__decap_6
XTAP_TAPCELL_ROW_25_459 VGND VPWR sky130_fd_sc_hd__tapvpwrvgnd_1
XFILLER_0_92_445 VPWR VGND VPWR VGND sky130_ef_sc_hd__decap_12
XFILLER_0_9_263 VPWR VGND VPWR VGND sky130_ef_sc_hd__decap_12
XFILLER_0_52_309 VPWR VGND VPWR VGND sky130_ef_sc_hd__decap_12
XFILLER_0_92_489 VPWR VGND VPWR VGND sky130_ef_sc_hd__decap_12
XFILLER_0_45_361 VGND VGND VPWR VPWR sky130_fd_sc_hd__decap_8
XFILLER_0_33_556 VGND VGND VPWR VPWR sky130_fd_sc_hd__decap_4
XTAP_TAPCELL_ROW_92_1130 VGND VPWR sky130_fd_sc_hd__tapvpwrvgnd_1
Xhold170 net249 VGND VGND VPWR VPWR net458 sky130_fd_sc_hd__dlygate4sd3_1
Xhold192 net155 VGND VGND VPWR VPWR net480 sky130_fd_sc_hd__dlygate4sd3_1
Xhold181 net190 VGND VGND VPWR VPWR net469 sky130_fd_sc_hd__dlygate4sd3_1
XFILLER_0_18_29 VPWR VGND VPWR VGND sky130_ef_sc_hd__decap_12
XFILLER_0_87_217 VGND VGND VPWR VPWR sky130_fd_sc_hd__decap_6
XFILLER_0_68_475 VGND VGND VPWR VPWR sky130_fd_sc_hd__fill_1
XFILLER_0_95_261 VPWR VGND VPWR VGND sky130_ef_sc_hd__decap_12
X_415_ net274 VGND VGND VPWR VPWR _130_ sky130_fd_sc_hd__inv_2
XFILLER_0_55_125 VPWR VGND VPWR VGND sky130_ef_sc_hd__decap_12
X_346_ net271 VGND VGND VPWR VPWR _061_ sky130_fd_sc_hd__inv_2
XFILLER_0_50_27 VGND VGND VPWR VPWR sky130_fd_sc_hd__fill_1
XFILLER_0_24_501 VGND VGND VPWR VPWR sky130_fd_sc_hd__decap_8
XFILLER_0_55_169 VPWR VGND VPWR VGND sky130_ef_sc_hd__decap_12
X_277_ net267 VGND VGND VPWR VPWR _232_ sky130_fd_sc_hd__inv_2
XFILLER_0_70_139 VGND VGND VPWR VPWR sky130_fd_sc_hd__fill_1
XFILLER_0_59_69 VPWR VGND VPWR VGND sky130_ef_sc_hd__decap_12
XFILLER_0_75_57 VPWR VGND VPWR VGND sky130_ef_sc_hd__decap_12
XFILLER_0_24_83 VGND VGND VPWR VPWR sky130_fd_sc_hd__fill_1
XFILLER_0_59_497 VGND VGND VPWR VPWR sky130_fd_sc_hd__decap_6
XFILLER_0_74_401 VPWR VGND VPWR VGND sky130_ef_sc_hd__decap_12
XTAP_TAPCELL_ROW_22_429 VGND VPWR sky130_fd_sc_hd__tapvpwrvgnd_1
XFILLER_0_46_158 VGND VGND VPWR VPWR sky130_fd_sc_hd__fill_1
XFILLER_0_74_445 VPWR VGND VPWR VGND sky130_ef_sc_hd__decap_12
XFILLER_0_6_233 VPWR VGND VPWR VGND sky130_ef_sc_hd__decap_12
XFILLER_0_34_309 VPWR VGND VPWR VGND sky130_ef_sc_hd__decap_12
XFILLER_0_74_489 VPWR VGND VPWR VGND sky130_ef_sc_hd__decap_12
XFILLER_0_15_534 VPWR VGND VPWR VGND sky130_ef_sc_hd__decap_12
XFILLER_0_6_277 VPWR VGND VPWR VGND sky130_ef_sc_hd__decap_12
XFILLER_0_40_82 VGND VGND VPWR VPWR sky130_fd_sc_hd__fill_2
XFILLER_0_71_3 VPWR VGND VPWR VGND sky130_ef_sc_hd__decap_12
Xoutput220 net220 VGND VGND VPWR VPWR output_ai[66] sky130_fd_sc_hd__buf_2
Xoutput231 net231 VGND VGND VPWR VPWR output_ai[76] sky130_fd_sc_hd__buf_2
Xoutput242 net242 VGND VGND VPWR VPWR output_ai[86] sky130_fd_sc_hd__buf_2
Xoutput253 net253 VGND VGND VPWR VPWR output_ai[96] sky130_fd_sc_hd__buf_2
XFILLER_0_4_82 VGND VGND VPWR VPWR sky130_fd_sc_hd__fill_2
XFILLER_0_69_217 VGND VGND VPWR VPWR sky130_fd_sc_hd__decap_6
XFILLER_0_97_559 VGND VGND VPWR VPWR sky130_fd_sc_hd__fill_1
XTAP_TAPCELL_ROW_66_871 VGND VPWR sky130_fd_sc_hd__tapvpwrvgnd_1
XFILLER_0_84_209 VPWR VGND VPWR VGND sky130_ef_sc_hd__decap_12
XTAP_TAPCELL_ROW_38_595 VGND VPWR sky130_fd_sc_hd__tapvpwrvgnd_1
XFILLER_0_77_261 VPWR VGND VPWR VGND sky130_ef_sc_hd__decap_12
XFILLER_0_37_125 VPWR VGND VPWR VGND sky130_ef_sc_hd__decap_12
XFILLER_0_92_253 VPWR VGND VPWR VGND sky130_ef_sc_hd__decap_12
XFILLER_0_37_169 VGND VGND VPWR VPWR sky130_fd_sc_hd__decap_8
XFILLER_0_52_139 VGND VGND VPWR VPWR sky130_fd_sc_hd__fill_1
XFILLER_0_21_559 VGND VGND VPWR VPWR sky130_fd_sc_hd__fill_1
XFILLER_0_29_39 VPWR VGND VPWR VGND sky130_ef_sc_hd__decap_12
XFILLER_0_45_27 VPWR VGND VPWR VGND sky130_ef_sc_hd__decap_12
XFILLER_0_0_29 VGND VGND VPWR VPWR sky130_fd_sc_hd__decap_6
XFILLER_0_61_15 VPWR VGND VPWR VGND sky130_ef_sc_hd__decap_12
XFILLER_0_56_401 VPWR VGND VPWR VGND sky130_ef_sc_hd__decap_12
XFILLER_0_28_136 VGND VGND VPWR VPWR sky130_fd_sc_hd__decap_4
XFILLER_0_28_147 VGND VGND VPWR VPWR sky130_fd_sc_hd__fill_1
XFILLER_0_56_445 VPWR VGND VPWR VGND sky130_ef_sc_hd__decap_12
XFILLER_0_16_309 VPWR VGND VPWR VGND sky130_ef_sc_hd__decap_12
XFILLER_0_56_489 VPWR VGND VPWR VGND sky130_ef_sc_hd__decap_12
XFILLER_0_9_49 VGND VGND VPWR VPWR sky130_fd_sc_hd__decap_6
XFILLER_0_9_27 VGND VGND VPWR VPWR sky130_fd_sc_hd__fill_2
X_329_ net269 VGND VGND VPWR VPWR _044_ sky130_fd_sc_hd__inv_2
XFILLER_0_3_225 VGND VGND VPWR VPWR sky130_fd_sc_hd__decap_8
XFILLER_0_12_515 VPWR VGND VPWR VGND sky130_ef_sc_hd__decap_12
XFILLER_0_10_41 VPWR VGND VPWR VGND sky130_ef_sc_hd__decap_12
XFILLER_0_51_161 VGND VGND VPWR VPWR sky130_fd_sc_hd__decap_6
XFILLER_0_10_85 VGND VGND VPWR VPWR sky130_fd_sc_hd__decap_4
XFILLER_0_19_94 VPWR VGND VPWR VGND sky130_ef_sc_hd__decap_12
XFILLER_0_79_559 VGND VGND VPWR VPWR sky130_fd_sc_hd__fill_1
XFILLER_0_66_209 VPWR VGND VPWR VGND sky130_ef_sc_hd__decap_12
XTAP_TAPCELL_ROW_35_565 VGND VPWR sky130_fd_sc_hd__tapvpwrvgnd_1
XFILLER_0_59_261 VPWR VGND VPWR VGND sky130_ef_sc_hd__decap_12
XTAP_TAPCELL_ROW_63_841 VGND VPWR sky130_fd_sc_hd__tapvpwrvgnd_1
XFILLER_0_19_125 VGND VGND VPWR VPWR sky130_fd_sc_hd__decap_4
XFILLER_0_7_542 VPWR VGND VPWR VGND sky130_ef_sc_hd__decap_12
XFILLER_0_7_531 VGND VGND VPWR VPWR sky130_fd_sc_hd__decap_8
XFILLER_0_19_169 VPWR VGND VPWR VGND sky130_ef_sc_hd__decap_12
XFILLER_0_74_253 VPWR VGND VPWR VGND sky130_ef_sc_hd__decap_12
XFILLER_0_34_139 VGND VGND VPWR VPWR sky130_fd_sc_hd__fill_1
XTAP_TAPCELL_ROW_7_279 VGND VPWR sky130_fd_sc_hd__tapvpwrvgnd_1
X_680_ clknet_leaf_13_clk net426 _200_ VGND VGND VPWR VPWR net149 sky130_fd_sc_hd__dfrtp_1
XFILLER_0_97_334 VGND VGND VPWR VPWR sky130_fd_sc_hd__fill_2
XFILLER_0_97_345 VGND VGND VPWR VPWR sky130_fd_sc_hd__fill_2
XTAP_TAPCELL_ROW_87_1084 VGND VPWR sky130_fd_sc_hd__tapvpwrvgnd_1
XFILLER_0_85_529 VPWR VGND VPWR VGND sky130_ef_sc_hd__decap_12
XFILLER_0_38_445 VGND VGND VPWR VPWR sky130_fd_sc_hd__decap_3
XFILLER_0_93_573 VGND VGND VPWR VPWR sky130_fd_sc_hd__decap_6
XFILLER_0_38_489 VPWR VGND VPWR VGND sky130_ef_sc_hd__decap_12
XFILLER_0_80_245 VGND VGND VPWR VPWR sky130_fd_sc_hd__decap_6
XFILLER_0_80_289 VPWR VGND VPWR VGND sky130_ef_sc_hd__decap_12
XFILLER_0_33_161 VGND VGND VPWR VPWR sky130_fd_sc_hd__decap_6
XFILLER_0_40_109 VPWR VGND VPWR VGND sky130_ef_sc_hd__decap_12
XFILLER_0_21_345 VPWR VGND VPWR VGND sky130_ef_sc_hd__decap_12
XFILLER_0_21_389 VGND VGND VPWR VPWR sky130_fd_sc_hd__decap_3
XFILLER_0_56_15 VPWR VGND VPWR VGND sky130_ef_sc_hd__decap_12
XFILLER_0_88_301 VGND VGND VPWR VPWR sky130_fd_sc_hd__decap_6
XTAP_TAPCELL_ROW_77_977 VGND VPWR sky130_fd_sc_hd__tapvpwrvgnd_1
XFILLER_0_88_345 VPWR VGND VPWR VGND sky130_ef_sc_hd__decap_12
XFILLER_0_88_389 VPWR VGND VPWR VGND sky130_ef_sc_hd__decap_12
XTAP_TAPCELL_ROW_60_811 VGND VPWR sky130_fd_sc_hd__tapvpwrvgnd_1
XTAP_TAPCELL_ROW_32_535 VGND VPWR sky130_fd_sc_hd__tapvpwrvgnd_1
XFILLER_0_56_253 VPWR VGND VPWR VGND sky130_ef_sc_hd__decap_12
XFILLER_0_16_139 VGND VGND VPWR VPWR sky130_fd_sc_hd__fill_1
XFILLER_0_21_40 VGND VGND VPWR VPWR sky130_fd_sc_hd__decap_3
XFILLER_0_71_223 VGND VGND VPWR VPWR sky130_fd_sc_hd__fill_1
XFILLER_0_21_51 VGND VGND VPWR VPWR sky130_fd_sc_hd__decap_4
XFILLER_0_97_11 VGND VGND VPWR VPWR sky130_fd_sc_hd__decap_3
XFILLER_0_4_545 VPWR VGND VPWR VGND sky130_ef_sc_hd__decap_12
XFILLER_0_24_161 VGND VGND VPWR VPWR sky130_fd_sc_hd__fill_2
XFILLER_0_12_345 VPWR VGND VPWR VGND sky130_ef_sc_hd__decap_12
XFILLER_0_24_194 VGND VGND VPWR VPWR sky130_fd_sc_hd__fill_2
XFILLER_0_12_389 VGND VGND VPWR VPWR sky130_fd_sc_hd__decap_8
XFILLER_0_34_3 VPWR VGND VPWR VGND sky130_ef_sc_hd__decap_12
XTAP_TAPCELL_ROW_4_249 VGND VPWR sky130_fd_sc_hd__tapvpwrvgnd_1
XTAP_TAPCELL_ROW_48_690 VGND VPWR sky130_fd_sc_hd__tapvpwrvgnd_1
XFILLER_0_67_529 VPWR VGND VPWR VGND sky130_ef_sc_hd__decap_12
XFILLER_0_75_573 VGND VGND VPWR VPWR sky130_fd_sc_hd__decap_6
XFILLER_0_62_245 VGND VGND VPWR VPWR sky130_fd_sc_hd__decap_6
XFILLER_0_15_161 VGND VGND VPWR VPWR sky130_fd_sc_hd__decap_6
XFILLER_0_62_289 VPWR VGND VPWR VGND sky130_ef_sc_hd__decap_12
XFILLER_0_30_153 VPWR VGND VPWR VGND sky130_ef_sc_hd__decap_12
XFILLER_0_30_197 VGND VGND VPWR VPWR sky130_fd_sc_hd__decap_8
XTAP_TAPCELL_ROW_89_1102 VGND VPWR sky130_fd_sc_hd__tapvpwrvgnd_1
Xhold30 net236 VGND VGND VPWR VPWR net318 sky130_fd_sc_hd__dlygate4sd3_1
Xhold41 net189 VGND VGND VPWR VPWR net329 sky130_fd_sc_hd__dlygate4sd3_1
Xhold74 net221 VGND VGND VPWR VPWR net362 sky130_fd_sc_hd__dlygate4sd3_1
Xhold63 net123 VGND VGND VPWR VPWR net351 sky130_fd_sc_hd__dlygate4sd3_1
Xhold52 net203 VGND VGND VPWR VPWR net340 sky130_fd_sc_hd__dlygate4sd3_1
XFILLER_0_26_29 VPWR VGND VPWR VGND sky130_ef_sc_hd__decap_12
X_663_ clknet_leaf_13_clk net310 _183_ VGND VGND VPWR VPWR net131 sky130_fd_sc_hd__dfrtp_1
Xhold96 net145 VGND VGND VPWR VPWR net384 sky130_fd_sc_hd__dlygate4sd3_1
Xhold85 net146 VGND VGND VPWR VPWR net373 sky130_fd_sc_hd__dlygate4sd3_1
XFILLER_0_97_153 VGND VGND VPWR VPWR sky130_fd_sc_hd__decap_8
XTAP_TAPCELL_ROW_74_947 VGND VPWR sky130_fd_sc_hd__tapvpwrvgnd_1
X_594_ clknet_leaf_19_clk net304 _114_ VGND VGND VPWR VPWR net54 sky130_fd_sc_hd__dfrtp_1
XFILLER_0_97_197 VGND VGND VPWR VPWR sky130_fd_sc_hd__fill_2
XFILLER_0_85_337 VPWR VGND VPWR VGND sky130_ef_sc_hd__decap_12
XFILLER_0_38_242 VGND VGND VPWR VPWR sky130_fd_sc_hd__decap_8
XFILLER_0_38_253 VPWR VGND VPWR VGND sky130_ef_sc_hd__decap_12
XFILLER_0_53_223 VGND VGND VPWR VPWR sky130_fd_sc_hd__fill_1
XFILLER_0_34_470 VGND VGND VPWR VPWR sky130_fd_sc_hd__decap_6
XFILLER_0_41_429 VPWR VGND VPWR VGND sky130_ef_sc_hd__decap_12
XFILLER_0_67_69 VPWR VGND VPWR VGND sky130_ef_sc_hd__decap_12
XFILLER_0_83_57 VPWR VGND VPWR VGND sky130_ef_sc_hd__decap_12
XTAP_TAPCELL_ROW_1_219 VGND VPWR sky130_fd_sc_hd__tapvpwrvgnd_1
XFILLER_0_16_62 VPWR VGND VPWR VGND sky130_ef_sc_hd__decap_12
XFILLER_0_88_153 VPWR VGND VPWR VGND sky130_ef_sc_hd__decap_12
XFILLER_0_49_529 VPWR VGND VPWR VGND sky130_ef_sc_hd__decap_12
XFILLER_0_88_197 VPWR VGND VPWR VGND sky130_ef_sc_hd__decap_12
XTAP_TAPCELL_ROW_45_660 VGND VPWR sky130_fd_sc_hd__tapvpwrvgnd_1
XTAP_TAPCELL_ROW_17_384 VGND VPWR sky130_fd_sc_hd__tapvpwrvgnd_1
XFILLER_0_57_573 VGND VGND VPWR VPWR sky130_fd_sc_hd__decap_6
XFILLER_0_91_329 VGND VGND VPWR VPWR sky130_fd_sc_hd__decap_6
XFILLER_0_44_245 VGND VGND VPWR VPWR sky130_fd_sc_hd__decap_6
XFILLER_0_4_342 VPWR VGND VPWR VGND sky130_ef_sc_hd__decap_12
XFILLER_0_32_418 VGND VGND VPWR VPWR sky130_fd_sc_hd__fill_2
XFILLER_0_25_481 VGND VGND VPWR VPWR sky130_fd_sc_hd__decap_3
XFILLER_0_12_153 VPWR VGND VPWR VGND sky130_ef_sc_hd__decap_12
XFILLER_0_12_197 VPWR VGND VPWR VGND sky130_ef_sc_hd__decap_12
XTAP_TAPCELL_ROW_71_917 VGND VPWR sky130_fd_sc_hd__tapvpwrvgnd_1
XTAP_TAPCELL_ROW_84_1054 VGND VPWR sky130_fd_sc_hd__tapvpwrvgnd_1
XFILLER_0_67_337 VPWR VGND VPWR VGND sky130_ef_sc_hd__decap_12
XFILLER_0_82_307 VGND VGND VPWR VPWR sky130_fd_sc_hd__fill_1
XFILLER_0_94_189 VGND VGND VPWR VPWR sky130_fd_sc_hd__decap_6
XFILLER_0_35_278 VGND VGND VPWR VPWR sky130_fd_sc_hd__fill_2
XTAP_TAPCELL_ROW_95_1161 VGND VPWR sky130_fd_sc_hd__tapvpwrvgnd_1
Xoutput20 net20 VGND VGND VPWR VPWR output_ai[101] sky130_fd_sc_hd__buf_2
Xoutput31 net31 VGND VGND VPWR VPWR output_ai[111] sky130_fd_sc_hd__buf_2
Xoutput42 net42 VGND VGND VPWR VPWR output_ai[121] sky130_fd_sc_hd__buf_2
Xoutput53 net53 VGND VGND VPWR VPWR output_ai[131] sky130_fd_sc_hd__buf_2
Xoutput64 net64 VGND VGND VPWR VPWR output_ai[141] sky130_fd_sc_hd__buf_2
Xoutput75 net75 VGND VGND VPWR VPWR output_ai[151] sky130_fd_sc_hd__buf_2
Xoutput86 net86 VGND VGND VPWR VPWR output_ai[161] sky130_fd_sc_hd__buf_2
Xoutput97 net97 VGND VGND VPWR VPWR output_ai[171] sky130_fd_sc_hd__buf_2
X_715_ clknet_leaf_10_clk net5 _235_ VGND VGND VPWR VPWR net62 sky130_fd_sc_hd__dfrtp_4
XFILLER_0_53_27 VPWR VGND VPWR VGND sky130_ef_sc_hd__decap_12
XTAP_TAPCELL_ROW_59_796 VGND VPWR sky130_fd_sc_hd__tapvpwrvgnd_1
X_646_ clknet_leaf_8_clk net466 _166_ VGND VGND VPWR VPWR net111 sky130_fd_sc_hd__dfrtp_1
X_577_ clknet_leaf_19_clk net348 _097_ VGND VGND VPWR VPWR net35 sky130_fd_sc_hd__dfrtp_1
XFILLER_0_85_167 VGND VGND VPWR VPWR sky130_fd_sc_hd__fill_1
XTAP_TAPCELL_ROW_42_630 VGND VPWR sky130_fd_sc_hd__tapvpwrvgnd_1
XTAP_TAPCELL_ROW_14_354 VGND VPWR sky130_fd_sc_hd__tapvpwrvgnd_1
XFILLER_0_39_573 VGND VGND VPWR VPWR sky130_fd_sc_hd__decap_6
XFILLER_0_73_329 VGND VGND VPWR VPWR sky130_fd_sc_hd__decap_6
XFILLER_0_5_128 VGND VGND VPWR VPWR sky130_fd_sc_hd__fill_1
XFILLER_0_26_256 VPWR VGND VPWR VGND sky130_ef_sc_hd__decap_12
XFILLER_0_81_373 VPWR VGND VPWR VGND sky130_ef_sc_hd__decap_12
XFILLER_0_14_407 VPWR VGND VPWR VGND sky130_ef_sc_hd__decap_12
XFILLER_0_1_301 VGND VGND VPWR VPWR sky130_fd_sc_hd__decap_8
XFILLER_0_41_237 VPWR VGND VPWR VGND sky130_ef_sc_hd__decap_12
XFILLER_0_22_462 VPWR VGND VPWR VGND sky130_ef_sc_hd__decap_12
XFILLER_0_89_473 VPWR VGND VPWR VGND sky130_ef_sc_hd__decap_12
XFILLER_0_49_304 VGND VGND VPWR VPWR sky130_fd_sc_hd__decap_8
XFILLER_0_49_337 VGND VGND VPWR VPWR sky130_fd_sc_hd__fill_2
XFILLER_0_64_307 VGND VGND VPWR VPWR sky130_fd_sc_hd__fill_1
XFILLER_0_76_189 VGND VGND VPWR VPWR sky130_fd_sc_hd__decap_6
XFILLER_0_91_137 VPWR VGND VPWR VGND sky130_ef_sc_hd__decap_12
XFILLER_0_17_278 VGND VGND VPWR VPWR sky130_fd_sc_hd__fill_2
XFILLER_0_60_513 VPWR VGND VPWR VGND sky130_ef_sc_hd__decap_12
XFILLER_0_60_557 VPWR VGND VPWR VGND sky130_ef_sc_hd__decap_12
XFILLER_0_4_194 VGND VGND VPWR VPWR sky130_fd_sc_hd__fill_2
XFILLER_0_13_495 VGND VGND VPWR VPWR sky130_fd_sc_hd__decap_8
XFILLER_0_40_281 VGND VGND VPWR VPWR sky130_fd_sc_hd__decap_4
X_500_ clknet_leaf_2_clk net383 _020_ VGND VGND VPWR VPWR net189 sky130_fd_sc_hd__dfrtp_1
XTAP_TAPCELL_ROW_56_766 VGND VPWR sky130_fd_sc_hd__tapvpwrvgnd_1
X_431_ net275 VGND VGND VPWR VPWR _146_ sky130_fd_sc_hd__inv_2
X_362_ net271 VGND VGND VPWR VPWR _077_ sky130_fd_sc_hd__inv_2
XFILLER_0_67_167 VGND VGND VPWR VPWR sky130_fd_sc_hd__fill_1
XFILLER_0_55_329 VGND VGND VPWR VPWR sky130_fd_sc_hd__decap_6
X_293_ net260 VGND VGND VPWR VPWR _008_ sky130_fd_sc_hd__inv_2
XTAP_TAPCELL_ROW_11_324 VGND VPWR sky130_fd_sc_hd__tapvpwrvgnd_1
XFILLER_0_63_373 VPWR VGND VPWR VGND sky130_ef_sc_hd__decap_12
XFILLER_0_51_579 VGND VGND VPWR VPWR sky130_fd_sc_hd__fill_1
XFILLER_0_31_281 VPWR VGND VPWR VGND sky130_ef_sc_hd__decap_12
XFILLER_0_48_27 VGND VGND VPWR VPWR sky130_fd_sc_hd__fill_1
XFILLER_0_64_15 VPWR VGND VPWR VGND sky130_ef_sc_hd__decap_12
XTAP_TAPCELL_ROW_19_402 VGND VPWR sky130_fd_sc_hd__tapvpwrvgnd_1
XFILLER_0_86_421 VPWR VGND VPWR VGND sky130_ef_sc_hd__decap_12
X_629_ clknet_leaf_9_clk net481 _149_ VGND VGND VPWR VPWR net92 sky130_fd_sc_hd__dfrtp_1
XFILLER_0_58_189 VGND VGND VPWR VPWR sky130_fd_sc_hd__decap_6
XFILLER_0_13_52 VGND VGND VPWR VPWR sky130_fd_sc_hd__decap_4
XFILLER_0_73_137 VPWR VGND VPWR VGND sky130_ef_sc_hd__decap_12
XFILLER_0_42_513 VPWR VGND VPWR VGND sky130_ef_sc_hd__decap_12
XFILLER_0_81_181 VPWR VGND VPWR VGND sky130_ef_sc_hd__decap_12
XFILLER_0_14_226 VPWR VGND VPWR VGND sky130_ef_sc_hd__decap_12
XFILLER_0_42_557 VPWR VGND VPWR VGND sky130_ef_sc_hd__decap_12
XFILLER_0_10_421 VGND VGND VPWR VPWR sky130_fd_sc_hd__decap_4
XFILLER_0_89_281 VPWR VGND VPWR VGND sky130_ef_sc_hd__decap_12
XTAP_TAPCELL_ROW_81_1024 VGND VPWR sky130_fd_sc_hd__tapvpwrvgnd_1
XTAP_TAPCELL_ROW_53_736 VGND VPWR sky130_fd_sc_hd__tapvpwrvgnd_1
XFILLER_0_92_413 VGND VGND VPWR VPWR sky130_fd_sc_hd__decap_6
XFILLER_0_92_457 VPWR VGND VPWR VGND sky130_ef_sc_hd__decap_12
XFILLER_0_9_275 VGND VGND VPWR VPWR sky130_fd_sc_hd__decap_4
XFILLER_0_60_321 VPWR VGND VPWR VGND sky130_ef_sc_hd__decap_12
XFILLER_0_5_481 VPWR VGND VPWR VGND sky130_ef_sc_hd__decap_12
XFILLER_0_33_579 VGND VGND VPWR VPWR sky130_fd_sc_hd__fill_1
XFILLER_0_60_365 VPWR VGND VPWR VGND sky130_ef_sc_hd__decap_12
XTAP_TAPCELL_ROW_92_1131 VGND VPWR sky130_fd_sc_hd__tapvpwrvgnd_1
XFILLER_0_13_281 VGND VGND VPWR VPWR sky130_fd_sc_hd__decap_4
Xhold160 net134 VGND VGND VPWR VPWR net448 sky130_fd_sc_hd__dlygate4sd3_1
Xhold171 net110 VGND VGND VPWR VPWR net459 sky130_fd_sc_hd__dlygate4sd3_1
Xhold193 net75 VGND VGND VPWR VPWR net481 sky130_fd_sc_hd__dlygate4sd3_1
Xhold182 net84 VGND VGND VPWR VPWR net470 sky130_fd_sc_hd__dlygate4sd3_1
XFILLER_0_34_29 VPWR VGND VPWR VGND sky130_ef_sc_hd__decap_12
XFILLER_0_68_421 VPWR VGND VPWR VGND sky130_ef_sc_hd__decap_12
X_414_ net274 VGND VGND VPWR VPWR _129_ sky130_fd_sc_hd__inv_2
XFILLER_0_95_273 VGND VGND VPWR VPWR sky130_fd_sc_hd__decap_6
XFILLER_0_28_307 VGND VGND VPWR VPWR sky130_fd_sc_hd__fill_1
X_345_ net270 VGND VGND VPWR VPWR _060_ sky130_fd_sc_hd__inv_2
XFILLER_0_55_137 VPWR VGND VPWR VGND sky130_ef_sc_hd__decap_12
XFILLER_0_36_340 VGND VGND VPWR VPWR sky130_fd_sc_hd__fill_2
X_276_ net267 VGND VGND VPWR VPWR _231_ sky130_fd_sc_hd__inv_2
XFILLER_0_63_181 VPWR VGND VPWR VGND sky130_ef_sc_hd__decap_12
XFILLER_0_59_15 VPWR VGND VPWR VGND sky130_ef_sc_hd__decap_12
XFILLER_0_75_69 VPWR VGND VPWR VGND sky130_ef_sc_hd__decap_12
XFILLER_0_91_57 VPWR VGND VPWR VGND sky130_ef_sc_hd__decap_12
XFILLER_0_86_251 VGND VGND VPWR VPWR sky130_fd_sc_hd__fill_1
XTAP_TAPCELL_ROW_50_706 VGND VPWR sky130_fd_sc_hd__tapvpwrvgnd_1
XFILLER_0_74_413 VGND VGND VPWR VPWR sky130_fd_sc_hd__decap_6
XFILLER_0_46_137 VGND VGND VPWR VPWR sky130_fd_sc_hd__decap_3
XFILLER_0_74_457 VPWR VGND VPWR VGND sky130_ef_sc_hd__decap_12
XFILLER_0_15_546 VPWR VGND VPWR VGND sky130_ef_sc_hd__decap_12
XFILLER_0_6_245 VGND VGND VPWR VPWR sky130_fd_sc_hd__decap_6
XFILLER_0_42_321 VPWR VGND VPWR VGND sky130_ef_sc_hd__decap_12
XFILLER_0_15_579 VGND VGND VPWR VPWR sky130_fd_sc_hd__fill_1
XFILLER_0_6_289 VPWR VGND VPWR VGND sky130_ef_sc_hd__decap_12
XFILLER_0_42_365 VGND VGND VPWR VPWR sky130_fd_sc_hd__fill_2
XPHY_EDGE_ROW_12_Right_12 VGND VGND VPWR VPWR sky130_fd_sc_hd__decap_3
Xoutput210 net210 VGND VGND VPWR VPWR output_ai[57] sky130_fd_sc_hd__buf_2
Xoutput232 net232 VGND VGND VPWR VPWR output_ai[77] sky130_fd_sc_hd__buf_2
Xoutput221 net221 VGND VGND VPWR VPWR output_ai[67] sky130_fd_sc_hd__buf_2
Xoutput243 net243 VGND VGND VPWR VPWR output_ai[87] sky130_fd_sc_hd__buf_2
XFILLER_0_64_3 VPWR VGND VPWR VGND sky130_ef_sc_hd__decap_12
Xoutput254 net254 VGND VGND VPWR VPWR output_ai[97] sky130_fd_sc_hd__buf_2
XFILLER_0_10_284 VGND VGND VPWR VPWR sky130_fd_sc_hd__fill_2
XFILLER_0_97_505 VPWR VGND VPWR VGND sky130_ef_sc_hd__decap_12
XPHY_EDGE_ROW_21_Right_21 VGND VGND VPWR VPWR sky130_fd_sc_hd__decap_3
XTAP_TAPCELL_ROW_66_872 VGND VPWR sky130_fd_sc_hd__tapvpwrvgnd_1
XFILLER_0_77_273 VGND VGND VPWR VPWR sky130_fd_sc_hd__decap_6
XFILLER_0_92_221 VPWR VGND VPWR VGND sky130_ef_sc_hd__decap_12
XFILLER_0_37_137 VPWR VGND VPWR VGND sky130_ef_sc_hd__decap_12
XFILLER_0_92_265 VPWR VGND VPWR VGND sky130_ef_sc_hd__decap_12
XFILLER_0_18_384 VPWR VGND VPWR VGND sky130_ef_sc_hd__decap_12
XFILLER_0_45_181 VGND VGND VPWR VPWR sky130_fd_sc_hd__decap_8
XFILLER_0_21_505 VPWR VGND VPWR VGND sky130_ef_sc_hd__decap_12
XPHY_EDGE_ROW_30_Right_30 VGND VGND VPWR VPWR sky130_fd_sc_hd__decap_3
XFILLER_0_33_365 VPWR VGND VPWR VGND sky130_ef_sc_hd__decap_12
XFILLER_0_60_195 VGND VGND VPWR VPWR sky130_fd_sc_hd__fill_1
XFILLER_0_45_39 VPWR VGND VPWR VGND sky130_ef_sc_hd__decap_12
XPHY_EDGE_ROW_14_Left_112 VGND VGND VPWR VPWR sky130_fd_sc_hd__decap_3
XFILLER_0_56_413 VGND VGND VPWR VPWR sky130_fd_sc_hd__decap_6
XFILLER_0_61_27 VPWR VGND VPWR VGND sky130_ef_sc_hd__decap_12
XFILLER_0_68_251 VGND VGND VPWR VPWR sky130_fd_sc_hd__fill_1
XFILLER_0_56_457 VPWR VGND VPWR VGND sky130_ef_sc_hd__decap_12
XFILLER_0_28_159 VGND VGND VPWR VPWR sky130_fd_sc_hd__fill_2
XFILLER_0_43_107 VGND VGND VPWR VPWR sky130_fd_sc_hd__decap_4
XFILLER_0_71_405 VPWR VGND VPWR VGND sky130_ef_sc_hd__decap_12
X_328_ net269 VGND VGND VPWR VPWR _043_ sky130_fd_sc_hd__inv_2
XFILLER_0_36_181 VPWR VGND VPWR VGND sky130_ef_sc_hd__decap_12
XFILLER_0_71_449 VPWR VGND VPWR VGND sky130_ef_sc_hd__decap_12
XFILLER_0_3_204 VGND VGND VPWR VPWR sky130_fd_sc_hd__decap_3
X_259_ net287 VGND VGND VPWR VPWR _214_ sky130_fd_sc_hd__inv_2
XFILLER_0_12_527 VGND VGND VPWR VPWR sky130_fd_sc_hd__decap_4
XFILLER_0_10_53 VPWR VGND VPWR VGND sky130_ef_sc_hd__decap_12
XPHY_EDGE_ROW_23_Left_121 VGND VGND VPWR VPWR sky130_fd_sc_hd__decap_3
XFILLER_0_24_365 VGND VGND VPWR VPWR sky130_fd_sc_hd__decap_6
XFILLER_0_19_51 VGND VGND VPWR VPWR sky130_fd_sc_hd__decap_4
XFILLER_0_79_505 VPWR VGND VPWR VGND sky130_ef_sc_hd__decap_12
XPHY_EDGE_ROW_32_Left_130 VGND VGND VPWR VPWR sky130_fd_sc_hd__decap_3
XFILLER_0_59_273 VGND VGND VPWR VPWR sky130_fd_sc_hd__decap_6