* NGSPICE file created from shifter.ext - technology: sky130A

* Black-box entry subcircuit for sky130_fd_sc_hd__decap_4 abstract view
.subckt sky130_fd_sc_hd__decap_4 VGND VNB VPB VPWR
.ends

* Black-box entry subcircuit for sky130_fd_sc_hd__decap_6 abstract view
.subckt sky130_fd_sc_hd__decap_6 VGND VNB VPB VPWR
.ends

* Black-box entry subcircuit for sky130_ef_sc_hd__decap_12 abstract view
.subckt sky130_ef_sc_hd__decap_12 VPWR VGND VPB VNB
.ends

* Black-box entry subcircuit for sky130_fd_sc_hd__fill_1 abstract view
.subckt sky130_fd_sc_hd__fill_1 VGND VNB VPB VPWR
.ends

* Black-box entry subcircuit for sky130_fd_sc_hd__tapvpwrvgnd_1 abstract view
.subckt sky130_fd_sc_hd__tapvpwrvgnd_1 VGND VPWR
.ends

* Black-box entry subcircuit for sky130_fd_sc_hd__decap_3 abstract view
.subckt sky130_fd_sc_hd__decap_3 VGND VNB VPB VPWR
.ends

* Black-box entry subcircuit for sky130_fd_sc_hd__diode_2 abstract view
.subckt sky130_fd_sc_hd__diode_2 DIODE VGND VNB VPB VPWR
.ends

* Black-box entry subcircuit for sky130_fd_sc_hd__dfrtp_1 abstract view
.subckt sky130_fd_sc_hd__dfrtp_1 CLK D RESET_B VGND VNB VPB VPWR Q
.ends

* Black-box entry subcircuit for sky130_fd_sc_hd__inv_2 abstract view
.subckt sky130_fd_sc_hd__inv_2 A VGND VNB VPB VPWR Y
.ends

* Black-box entry subcircuit for sky130_fd_sc_hd__fill_2 abstract view
.subckt sky130_fd_sc_hd__fill_2 VGND VNB VPB VPWR
.ends

* Black-box entry subcircuit for sky130_fd_sc_hd__decap_8 abstract view
.subckt sky130_fd_sc_hd__decap_8 VGND VNB VPB VPWR
.ends

* Black-box entry subcircuit for sky130_fd_sc_hd__dlygate4sd3_1 abstract view
.subckt sky130_fd_sc_hd__dlygate4sd3_1 A VGND VNB VPB VPWR X
.ends

* Black-box entry subcircuit for sky130_fd_sc_hd__clkbuf_4 abstract view
.subckt sky130_fd_sc_hd__clkbuf_4 A VGND VNB VPB VPWR X
.ends

* Black-box entry subcircuit for sky130_fd_sc_hd__dfrtp_2 abstract view
.subckt sky130_fd_sc_hd__dfrtp_2 CLK D RESET_B VGND VNB VPB VPWR Q
.ends

* Black-box entry subcircuit for sky130_fd_sc_hd__buf_4 abstract view
.subckt sky130_fd_sc_hd__buf_4 A VGND VNB VPB VPWR X
.ends

* Black-box entry subcircuit for sky130_fd_sc_hd__clkbuf_8 abstract view
.subckt sky130_fd_sc_hd__clkbuf_8 A VGND VNB VPB VPWR X
.ends

* Black-box entry subcircuit for sky130_fd_sc_hd__buf_2 abstract view
.subckt sky130_fd_sc_hd__buf_2 A VGND VNB VPB VPWR X
.ends

* Black-box entry subcircuit for sky130_fd_sc_hd__buf_6 abstract view
.subckt sky130_fd_sc_hd__buf_6 A VGND VNB VPB VPWR X
.ends

* Black-box entry subcircuit for sky130_fd_sc_hd__dfrtp_4 abstract view
.subckt sky130_fd_sc_hd__dfrtp_4 CLK D RESET_B VGND VNB VPB VPWR Q
.ends

* Black-box entry subcircuit for sky130_fd_sc_hd__clkbuf_16 abstract view
.subckt sky130_fd_sc_hd__clkbuf_16 A VGND VNB VPB VPWR X
.ends

* Black-box entry subcircuit for sky130_fd_sc_hd__clkbuf_2 abstract view
.subckt sky130_fd_sc_hd__clkbuf_2 A VGND VNB VPB VPWR X
.ends

.subckt shifter VGND VPWR clk input_pc[0] input_pc[10] input_pc[11] input_pc[12] input_pc[13]
+ input_pc[14] input_pc[15] input_pc[1] input_pc[2] input_pc[3] input_pc[4] input_pc[5]
+ input_pc[6] input_pc[7] input_pc[8] input_pc[9] output_ai[0] output_ai[100] output_ai[101]
+ output_ai[102] output_ai[103] output_ai[104] output_ai[105] output_ai[106] output_ai[107]
+ output_ai[108] output_ai[109] output_ai[10] output_ai[110] output_ai[111] output_ai[112]
+ output_ai[113] output_ai[114] output_ai[115] output_ai[116] output_ai[117] output_ai[118]
+ output_ai[119] output_ai[11] output_ai[120] output_ai[121] output_ai[122] output_ai[123]
+ output_ai[124] output_ai[125] output_ai[126] output_ai[127] output_ai[128] output_ai[129]
+ output_ai[12] output_ai[130] output_ai[131] output_ai[132] output_ai[133] output_ai[134]
+ output_ai[135] output_ai[136] output_ai[137] output_ai[138] output_ai[139] output_ai[13]
+ output_ai[140] output_ai[141] output_ai[142] output_ai[143] output_ai[144] output_ai[145]
+ output_ai[146] output_ai[147] output_ai[148] output_ai[149] output_ai[14] output_ai[150]
+ output_ai[151] output_ai[152] output_ai[153] output_ai[154] output_ai[155] output_ai[156]
+ output_ai[157] output_ai[158] output_ai[159] output_ai[15] output_ai[160] output_ai[161]
+ output_ai[162] output_ai[163] output_ai[164] output_ai[165] output_ai[166] output_ai[167]
+ output_ai[168] output_ai[169] output_ai[16] output_ai[170] output_ai[171] output_ai[172]
+ output_ai[173] output_ai[174] output_ai[175] output_ai[176] output_ai[177] output_ai[178]
+ output_ai[179] output_ai[17] output_ai[180] output_ai[181] output_ai[182] output_ai[183]
+ output_ai[184] output_ai[185] output_ai[186] output_ai[187] output_ai[188] output_ai[189]
+ output_ai[18] output_ai[190] output_ai[191] output_ai[192] output_ai[193] output_ai[194]
+ output_ai[195] output_ai[196] output_ai[197] output_ai[198] output_ai[199] output_ai[19]
+ output_ai[1] output_ai[200] output_ai[201] output_ai[202] output_ai[203] output_ai[204]
+ output_ai[205] output_ai[206] output_ai[207] output_ai[208] output_ai[209] output_ai[20]
+ output_ai[210] output_ai[211] output_ai[212] output_ai[213] output_ai[214] output_ai[215]
+ output_ai[216] output_ai[217] output_ai[218] output_ai[219] output_ai[21] output_ai[220]
+ output_ai[221] output_ai[222] output_ai[223] output_ai[224] output_ai[225] output_ai[226]
+ output_ai[227] output_ai[228] output_ai[229] output_ai[22] output_ai[230] output_ai[231]
+ output_ai[232] output_ai[233] output_ai[234] output_ai[235] output_ai[236] output_ai[237]
+ output_ai[238] output_ai[239] output_ai[23] output_ai[24] output_ai[25] output_ai[26]
+ output_ai[27] output_ai[28] output_ai[29] output_ai[2] output_ai[30] output_ai[31]
+ output_ai[32] output_ai[33] output_ai[34] output_ai[35] output_ai[36] output_ai[37]
+ output_ai[38] output_ai[39] output_ai[3] output_ai[40] output_ai[41] output_ai[42]
+ output_ai[43] output_ai[44] output_ai[45] output_ai[46] output_ai[47] output_ai[48]
+ output_ai[49] output_ai[4] output_ai[50] output_ai[51] output_ai[52] output_ai[53]
+ output_ai[54] output_ai[55] output_ai[56] output_ai[57] output_ai[58] output_ai[59]
+ output_ai[5] output_ai[60] output_ai[61] output_ai[62] output_ai[63] output_ai[64]
+ output_ai[65] output_ai[66] output_ai[67] output_ai[68] output_ai[69] output_ai[6]
+ output_ai[70] output_ai[71] output_ai[72] output_ai[73] output_ai[74] output_ai[75]
+ output_ai[76] output_ai[77] output_ai[78] output_ai[79] output_ai[7] output_ai[80]
+ output_ai[81] output_ai[82] output_ai[83] output_ai[84] output_ai[85] output_ai[86]
+ output_ai[87] output_ai[88] output_ai[89] output_ai[8] output_ai[90] output_ai[91]
+ output_ai[92] output_ai[93] output_ai[94] output_ai[95] output_ai[96] output_ai[97]
+ output_ai[98] output_ai[99] output_ai[9] reset
XFILLER_0_20_1032 VGND VGND VPWR VPWR sky130_fd_sc_hd__decap_4
XFILLER_0_281_665 VGND VGND VPWR VPWR sky130_fd_sc_hd__decap_6
XFILLER_0_236_1309 VGND VGND VPWR VPWR sky130_fd_sc_hd__decap_6
XFILLER_0_94_77 VGND VGND VPWR VPWR sky130_fd_sc_hd__decap_6
XFILLER_0_280_153 VPWR VGND VPWR VGND sky130_ef_sc_hd__decap_12
XFILLER_0_275_1369 VPWR VGND VPWR VGND sky130_ef_sc_hd__decap_12
XFILLER_0_59_1231 VGND VGND VPWR VPWR sky130_fd_sc_hd__fill_1
XFILLER_0_241_529 VPWR VGND VPWR VGND sky130_ef_sc_hd__decap_12
XFILLER_0_20_1076 VGND VGND VPWR VPWR sky130_fd_sc_hd__fill_1
XFILLER_0_74_1707 VGND VGND VPWR VPWR sky130_fd_sc_hd__fill_1
XFILLER_0_253_1623 VGND VGND VPWR VPWR sky130_fd_sc_hd__fill_1
XFILLER_0_234_581 VGND VGND VPWR VPWR sky130_fd_sc_hd__decap_6
XTAP_TAPCELL_ROW_233_7712 VGND VPWR sky130_fd_sc_hd__tapvpwrvgnd_1
XFILLER_0_280_197 VPWR VGND VPWR VGND sky130_ef_sc_hd__decap_12
XTAP_TAPCELL_ROW_233_7723 VGND VPWR sky130_fd_sc_hd__tapvpwrvgnd_1
XFILLER_0_171_1301 VPWR VGND VPWR VGND sky130_ef_sc_hd__decap_12
XFILLER_0_136_1421 VGND VGND VPWR VPWR sky130_fd_sc_hd__decap_6
XTAP_TAPCELL_ROW_65_2604 VGND VPWR sky130_fd_sc_hd__tapvpwrvgnd_1
XFILLER_0_175_1481 VPWR VGND VPWR VGND sky130_ef_sc_hd__decap_12
XFILLER_0_27_93 VPWR VGND VPWR VGND sky130_ef_sc_hd__decap_12
XTAP_TAPCELL_ROW_233_7734 VGND VPWR sky130_fd_sc_hd__tapvpwrvgnd_1
XTAP_TAPCELL_ROW_218_7280 VGND VPWR sky130_fd_sc_hd__tapvpwrvgnd_1
XTAP_TAPCELL_ROW_214_7133 VGND VPWR sky130_fd_sc_hd__tapvpwrvgnd_1
XFILLER_0_210_905 VPWR VGND VPWR VGND sky130_ef_sc_hd__decap_12
XTAP_TAPCELL_ROW_46_2014 VGND VPWR sky130_fd_sc_hd__tapvpwrvgnd_1
XFILLER_0_89_461 VPWR VGND VPWR VGND sky130_ef_sc_hd__decap_12
XTAP_TAPCELL_ROW_214_7144 VGND VPWR sky130_fd_sc_hd__tapvpwrvgnd_1
XFILLER_0_171_1345 VPWR VGND VPWR VGND sky130_ef_sc_hd__decap_12
XFILLER_0_167_809 VPWR VGND VPWR VGND sky130_ef_sc_hd__decap_12
XFILLER_0_136_1465 VPWR VGND VPWR VGND sky130_ef_sc_hd__decap_12
XTAP_TAPCELL_ROW_46_2025 VGND VPWR sky130_fd_sc_hd__tapvpwrvgnd_1
XTAP_TAPCELL_ROW_214_7155 VGND VPWR sky130_fd_sc_hd__tapvpwrvgnd_1
XFILLER_0_210_949 VPWR VGND VPWR VGND sky130_ef_sc_hd__decap_12
XFILLER_0_132_1329 VPWR VGND VPWR VGND sky130_ef_sc_hd__decap_12
XFILLER_0_72_1453 VPWR VGND VPWR VGND sky130_ef_sc_hd__decap_12
XTAP_TAPCELL_ROW_210_7008 VGND VPWR sky130_fd_sc_hd__tapvpwrvgnd_1
XTAP_TAPCELL_ROW_210_7019 VGND VPWR sky130_fd_sc_hd__tapvpwrvgnd_1
XFILLER_0_193_105 VGND VGND VPWR VPWR sky130_fd_sc_hd__decap_6
XFILLER_0_76_133 VGND VGND VPWR VPWR sky130_fd_sc_hd__decap_6
XFILLER_0_134_83 VGND VGND VPWR VPWR sky130_fd_sc_hd__fill_1
XFILLER_0_33_1437 VPWR VGND VPWR VGND sky130_ef_sc_hd__decap_12
XFILLER_0_212_1353 VPWR VGND VPWR VGND sky130_ef_sc_hd__decap_12
XFILLER_0_72_1497 VPWR VGND VPWR VGND sky130_ef_sc_hd__decap_12
XFILLER_0_193_149 VPWR VGND VPWR VGND sky130_ef_sc_hd__decap_12
XFILLER_0_159_393 VPWR VGND VPWR VGND sky130_ef_sc_hd__decap_12
XFILLER_0_18_701 VPWR VGND VPWR VGND sky130_ef_sc_hd__decap_12
XFILLER_0_43_81 VPWR VGND VPWR VGND sky130_ef_sc_hd__decap_12
XFILLER_0_175_853 VPWR VGND VPWR VGND sky130_ef_sc_hd__decap_12
XFILLER_0_58_881 VPWR VGND VPWR VGND sky130_ef_sc_hd__decap_12
XFILLER_0_76_177 VPWR VGND VPWR VGND sky130_ef_sc_hd__decap_12
XFILLER_0_92_637 VGND VGND VPWR VPWR sky130_fd_sc_hd__decap_6
XFILLER_0_212_1397 VPWR VGND VPWR VGND sky130_ef_sc_hd__decap_12
XFILLER_0_17_211 VPWR VGND VPWR VGND sky130_ef_sc_hd__decap_12
XFILLER_0_91_125 VPWR VGND VPWR VGND sky130_ef_sc_hd__decap_12
XFILLER_0_174_363 VGND VGND VPWR VPWR sky130_fd_sc_hd__fill_1
XFILLER_0_57_391 VGND VGND VPWR VPWR sky130_fd_sc_hd__fill_1
XFILLER_0_175_897 VPWR VGND VPWR VGND sky130_ef_sc_hd__decap_12
XFILLER_0_119_279 VGND VGND VPWR VPWR sky130_fd_sc_hd__fill_1
XFILLER_0_162_525 VGND VGND VPWR VPWR sky130_fd_sc_hd__decap_6
XTAP_TAPCELL_ROW_227_7527 VGND VPWR sky130_fd_sc_hd__tapvpwrvgnd_1
XFILLER_0_45_553 VGND VGND VPWR VPWR sky130_fd_sc_hd__decap_6
XTAP_TAPCELL_ROW_59_2408 VGND VPWR sky130_fd_sc_hd__tapvpwrvgnd_1
XFILLER_0_282_1329 VPWR VGND VPWR VGND sky130_ef_sc_hd__decap_12
XFILLER_0_247_1449 VGND VGND VPWR VPWR sky130_fd_sc_hd__decap_6
XTAP_TAPCELL_ROW_59_2419 VGND VPWR sky130_fd_sc_hd__tapvpwrvgnd_1
XFILLER_0_91_169 VPWR VGND VPWR VGND sky130_ef_sc_hd__decap_12
XTAP_TAPCELL_ROW_227_7538 VGND VPWR sky130_fd_sc_hd__tapvpwrvgnd_1
XFILLER_0_60_501 VPWR VGND VPWR VGND sky130_ef_sc_hd__decap_12
XTAP_TAPCELL_ROW_227_7549 VGND VPWR sky130_fd_sc_hd__tapvpwrvgnd_1
XFILLER_0_190_867 VGND VGND VPWR VPWR sky130_fd_sc_hd__fill_1
XFILLER_0_73_895 VGND VGND VPWR VPWR sky130_fd_sc_hd__fill_1
XFILLER_0_162_569 VPWR VGND VPWR VGND sky130_ef_sc_hd__decap_12
XFILLER_0_115_441 VGND VGND VPWR VPWR sky130_fd_sc_hd__decap_6
XFILLER_0_45_597 VPWR VGND VPWR VGND sky130_ef_sc_hd__decap_12
XFILLER_0_182_1441 VPWR VGND VPWR VGND sky130_ef_sc_hd__decap_12
XFILLER_0_147_1561 VGND VGND VPWR VPWR sky130_fd_sc_hd__decap_6
XFILLER_0_60_545 VPWR VGND VPWR VGND sky130_ef_sc_hd__decap_12
XFILLER_0_143_783 VGND VGND VPWR VPWR sky130_fd_sc_hd__fill_1
XFILLER_0_115_485 VPWR VGND VPWR VGND sky130_ef_sc_hd__decap_12
XFILLER_0_131_945 VGND VGND VPWR VPWR sky130_fd_sc_hd__decap_6
XFILLER_0_249_629 VPWR VGND VPWR VGND sky130_ef_sc_hd__decap_12
XFILLER_0_143_1425 VPWR VGND VPWR VGND sky130_ef_sc_hd__decap_12
XFILLER_0_182_1485 VPWR VGND VPWR VGND sky130_ef_sc_hd__decap_12
XFILLER_0_130_433 VPWR VGND VPWR VGND sky130_ef_sc_hd__decap_12
XFILLER_0_14_984 VPWR VGND VPWR VGND sky130_ef_sc_hd__decap_12
XFILLER_0_60_589 VPWR VGND VPWR VGND sky130_ef_sc_hd__decap_12
XTAP_TAPCELL_ROW_277_9052 VGND VPWR sky130_fd_sc_hd__tapvpwrvgnd_1
XFILLER_0_4_193 VGND VGND VPWR VPWR sky130_fd_sc_hd__decap_3
XTAP_TAPCELL_ROW_277_9063 VGND VPWR sky130_fd_sc_hd__tapvpwrvgnd_1
XFILLER_0_44_1533 VGND VGND VPWR VPWR sky130_fd_sc_hd__decap_6
XFILLER_0_104_1409 VPWR VGND VPWR VGND sky130_ef_sc_hd__decap_12
XTAP_TAPCELL_ROW_277_9074 VGND VPWR sky130_fd_sc_hd__tapvpwrvgnd_1
XFILLER_0_248_139 VGND VGND VPWR VPWR sky130_fd_sc_hd__fill_1
XFILLER_0_131_989 VPWR VGND VPWR VGND sky130_ef_sc_hd__decap_12
XFILLER_0_83_1593 VPWR VGND VPWR VGND sky130_ef_sc_hd__decap_12
XFILLER_0_143_1469 VPWR VGND VPWR VGND sky130_ef_sc_hd__decap_12
XFILLER_0_108_1589 VGND VGND VPWR VPWR sky130_fd_sc_hd__decap_6
XFILLER_0_130_477 VPWR VGND VPWR VGND sky130_ef_sc_hd__decap_12
XFILLER_0_7_81 VPWR VGND VPWR VGND sky130_ef_sc_hd__decap_12
XFILLER_0_229_39 VPWR VGND VPWR VGND sky130_ef_sc_hd__decap_12
XFILLER_0_44_1577 VPWR VGND VPWR VGND sky130_ef_sc_hd__decap_12
XFILLER_0_223_1493 VPWR VGND VPWR VGND sky130_ef_sc_hd__decap_12
XTAP_TAPCELL_ROW_6_800 VGND VPWR sky130_fd_sc_hd__tapvpwrvgnd_1
XFILLER_0_257_673 VPWR VGND VPWR VGND sky130_ef_sc_hd__decap_12
XTAP_TAPCELL_ROW_6_811 VGND VPWR sky130_fd_sc_hd__tapvpwrvgnd_1
XFILLER_0_285_993 VPWR VGND VPWR VGND sky130_ef_sc_hd__decap_12
XFILLER_0_244_301 VGND VGND VPWR VPWR sky130_fd_sc_hd__decap_6
XFILLER_0_99_1033 VPWR VGND VPWR VGND sky130_ef_sc_hd__decap_12
XFILLER_0_272_643 VGND VGND VPWR VPWR sky130_fd_sc_hd__fill_1
XFILLER_0_217_559 VGND VGND VPWR VPWR sky130_fd_sc_hd__fill_1
XFILLER_0_99_1077 VPWR VGND VPWR VGND sky130_ef_sc_hd__decap_12
XFILLER_0_244_345 VPWR VGND VPWR VGND sky130_ef_sc_hd__decap_12
XFILLER_0_260_805 VGND VGND VPWR VPWR sky130_fd_sc_hd__decap_6
XFILLER_0_254_1409 VPWR VGND VPWR VGND sky130_ef_sc_hd__decap_12
XFILLER_0_258_1589 VGND VGND VPWR VPWR sky130_fd_sc_hd__decap_6
XFILLER_0_245_27 VPWR VGND VPWR VGND sky130_ef_sc_hd__decap_12
XFILLER_0_204_209 VPWR VGND VPWR VGND sky130_ef_sc_hd__decap_12
XFILLER_0_244_389 VPWR VGND VPWR VGND sky130_ef_sc_hd__decap_12
XANTENNA__610__CLK clknet_leaf_4_clk VGND VGND VPWR VPWR sky130_fd_sc_hd__diode_2
XFILLER_0_99_225 VPWR VGND VPWR VGND sky130_ef_sc_hd__decap_12
XFILLER_0_260_849 VPWR VGND VPWR VGND sky130_ef_sc_hd__decap_12
XFILLER_0_213_721 VGND VGND VPWR VPWR sky130_fd_sc_hd__decap_6
XFILLER_0_198_923 VGND VGND VPWR VPWR sky130_fd_sc_hd__fill_1
XFILLER_0_38_1315 VGND VGND VPWR VPWR sky130_fd_sc_hd__fill_1
XFILLER_0_217_1231 VGND VGND VPWR VPWR sky130_fd_sc_hd__fill_1
XFILLER_0_154_1521 VPWR VGND VPWR VGND sky130_ef_sc_hd__decap_12
XFILLER_0_193_1581 VPWR VGND VPWR VGND sky130_ef_sc_hd__decap_12
XFILLER_0_169_113 VPWR VGND VPWR VGND sky130_ef_sc_hd__decap_12
XFILLER_0_232_1707 VGND VGND VPWR VPWR sky130_fd_sc_hd__fill_1
XFILLER_0_213_765 VPWR VGND VPWR VGND sky130_ef_sc_hd__decap_12
X_501_ clknet_leaf_0_clk net457 _021_ VGND VGND VPWR VPWR net190 sky130_fd_sc_hd__dfrtp_1
XFILLER_0_68_601 VPWR VGND VPWR VGND sky130_ef_sc_hd__decap_12
XFILLER_0_115_1505 VGND VGND VPWR VPWR sky130_fd_sc_hd__decap_6
XFILLER_0_212_253 VPWR VGND VPWR VGND sky130_ef_sc_hd__decap_12
XFILLER_0_154_1565 VPWR VGND VPWR VGND sky130_ef_sc_hd__decap_12
XTAP_TAPCELL_ROW_29_1500 VGND VPWR sky130_fd_sc_hd__tapvpwrvgnd_1
XTAP_TAPCELL_ROW_29_1511 VGND VPWR sky130_fd_sc_hd__tapvpwrvgnd_1
XFILLER_0_185_617 VPWR VGND VPWR VGND sky130_ef_sc_hd__decap_12
XFILLER_0_67_111 VGND VGND VPWR VPWR sky130_fd_sc_hd__fill_1
XFILLER_0_261_15 VPWR VGND VPWR VGND sky130_ef_sc_hd__decap_12
XFILLER_0_150_1429 VPWR VGND VPWR VGND sky130_ef_sc_hd__decap_12
XFILLER_0_55_1673 VGND VGND VPWR VPWR sky130_fd_sc_hd__decap_6
XFILLER_0_68_645 VPWR VGND VPWR VGND sky130_ef_sc_hd__decap_12
XFILLER_0_90_1553 VPWR VGND VPWR VGND sky130_ef_sc_hd__decap_12
XFILLER_0_115_1549 VPWR VGND VPWR VGND sky130_ef_sc_hd__decap_12
X_432_ net284 VGND VGND VPWR VPWR _147_ sky130_fd_sc_hd__inv_2
XFILLER_0_36_1061 VPWR VGND VPWR VGND sky130_ef_sc_hd__decap_12
XFILLER_0_189_1617 VGND VGND VPWR VPWR sky130_fd_sc_hd__decap_6
XFILLER_0_51_1537 VPWR VGND VPWR VGND sky130_ef_sc_hd__decap_12
XFILLER_0_230_1453 VPWR VGND VPWR VGND sky130_ef_sc_hd__decap_12
XFILLER_0_138_533 VPWR VGND VPWR VGND sky130_ef_sc_hd__decap_12
XFILLER_0_83_615 VGND VGND VPWR VPWR sky130_fd_sc_hd__fill_1
XFILLER_0_90_1597 VPWR VGND VPWR VGND sky130_ef_sc_hd__decap_12
XFILLER_0_55_317 VPWR VGND VPWR VGND sky130_ef_sc_hd__decap_12
XFILLER_0_7_1493 VPWR VGND VPWR VGND sky130_ef_sc_hd__decap_12
X_363_ net274 VGND VGND VPWR VPWR _078_ sky130_fd_sc_hd__inv_2
XFILLER_0_95_497 VGND VGND VPWR VPWR sky130_fd_sc_hd__decap_6
XFILLER_0_265_1505 VGND VGND VPWR VPWR sky130_fd_sc_hd__decap_6
XFILLER_0_230_1497 VPWR VGND VPWR VGND sky130_ef_sc_hd__decap_12
XFILLER_0_153_503 VGND VGND VPWR VPWR sky130_fd_sc_hd__fill_1
XFILLER_0_125_205 VPWR VGND VPWR VGND sky130_ef_sc_hd__decap_12
XFILLER_0_36_531 VGND VGND VPWR VPWR sky130_fd_sc_hd__fill_1
XTAP_TAPCELL_ROW_262_8620 VGND VPWR sky130_fd_sc_hd__tapvpwrvgnd_1
XFILLER_0_165_385 VGND VGND VPWR VPWR sky130_fd_sc_hd__decap_6
X_294_ net265 VGND VGND VPWR VPWR _009_ sky130_fd_sc_hd__inv_2
XFILLER_0_70_309 VPWR VGND VPWR VGND sky130_ef_sc_hd__decap_12
XFILLER_0_265_1549 VPWR VGND VPWR VGND sky130_ef_sc_hd__decap_12
XTAP_TAPCELL_ROW_243_8030 VGND VPWR sky130_fd_sc_hd__tapvpwrvgnd_1
XFILLER_0_180_333 VPWR VGND VPWR VGND sky130_ef_sc_hd__decap_12
XFILLER_0_125_249 VPWR VGND VPWR VGND sky130_ef_sc_hd__decap_12
XFILLER_0_63_361 VPWR VGND VPWR VGND sky130_ef_sc_hd__decap_12
XFILLER_0_107_953 VPWR VGND VPWR VGND sky130_ef_sc_hd__decap_12
XTAP_TAPCELL_ROW_243_8041 VGND VPWR sky130_fd_sc_hd__tapvpwrvgnd_1
XFILLER_0_141_709 VPWR VGND VPWR VGND sky130_ef_sc_hd__decap_12
XFILLER_0_181_889 VGND VGND VPWR VPWR sky130_fd_sc_hd__decap_6
XFILLER_0_24_737 VPWR VGND VPWR VGND sky130_ef_sc_hd__decap_12
XFILLER_0_23_225 VPWR VGND VPWR VGND sky130_ef_sc_hd__decap_12
XFILLER_0_180_377 VPWR VGND VPWR VGND sky130_ef_sc_hd__decap_12
XFILLER_0_49_1455 VGND VGND VPWR VPWR sky130_fd_sc_hd__fill_1
XFILLER_0_268_905 VPWR VGND VPWR VGND sky130_ef_sc_hd__decap_12
XFILLER_0_228_1371 VGND VGND VPWR VPWR sky130_fd_sc_hd__fill_1
XFILLER_0_210_41 VPWR VGND VPWR VGND sky130_ef_sc_hd__decap_12
XFILLER_0_165_1661 VPWR VGND VPWR VGND sky130_ef_sc_hd__decap_12
XFILLER_0_122_923 VGND VGND VPWR VPWR sky130_fd_sc_hd__fill_1
XFILLER_0_161_1525 VPWR VGND VPWR VGND sky130_ef_sc_hd__decap_12
XFILLER_0_133_293 VPWR VGND VPWR VGND sky130_ef_sc_hd__decap_12
XFILLER_0_126_1645 VGND VGND VPWR VPWR sky130_fd_sc_hd__decap_6
XFILLER_0_268_949 VPWR VGND VPWR VGND sky130_ef_sc_hd__decap_12
XFILLER_0_210_85 VPWR VGND VPWR VGND sky130_ef_sc_hd__decap_12
XANTENNA_output179_A net179 VGND VGND VPWR VPWR sky130_fd_sc_hd__diode_2
XFILLER_0_107_1033 VPWR VGND VPWR VGND sky130_ef_sc_hd__decap_12
XFILLER_0_146_1093 VPWR VGND VPWR VGND sky130_ef_sc_hd__decap_12
XFILLER_0_32_781 VPWR VGND VPWR VGND sky130_ef_sc_hd__decap_12
XFILLER_0_122_1509 VPWR VGND VPWR VGND sky130_ef_sc_hd__decap_12
XFILLER_0_62_1633 VPWR VGND VPWR VGND sky130_ef_sc_hd__decap_12
XFILLER_0_161_1569 VPWR VGND VPWR VGND sky130_ef_sc_hd__decap_12
XFILLER_0_43_1021 VPWR VGND VPWR VGND sky130_ef_sc_hd__decap_12
XFILLER_0_126_1689 VPWR VGND VPWR VGND sky130_ef_sc_hd__decap_12
XFILLER_0_48_15 VPWR VGND VPWR VGND sky130_ef_sc_hd__decap_12
XFILLER_0_139_39 VPWR VGND VPWR VGND sky130_ef_sc_hd__decap_12
XFILLER_0_107_1077 VPWR VGND VPWR VGND sky130_ef_sc_hd__decap_12
XFILLER_0_23_1617 VGND VGND VPWR VPWR sky130_fd_sc_hd__decap_6
XTAP_TAPCELL_ROW_256_8413 VGND VPWR sky130_fd_sc_hd__tapvpwrvgnd_1
XFILLER_0_254_109 VPWR VGND VPWR VGND sky130_ef_sc_hd__decap_12
XFILLER_0_202_1533 VGND VGND VPWR VPWR sky130_fd_sc_hd__decap_6
XFILLER_0_62_1677 VPWR VGND VPWR VGND sky130_ef_sc_hd__decap_12
XTAP_TAPCELL_ROW_256_8424 VGND VPWR sky130_fd_sc_hd__tapvpwrvgnd_1
XFILLER_0_241_1593 VPWR VGND VPWR VGND sky130_ef_sc_hd__decap_12
XFILLER_0_236_813 VPWR VGND VPWR VGND sky130_ef_sc_hd__decap_12
XFILLER_0_43_1065 VPWR VGND VPWR VGND sky130_ef_sc_hd__decap_12
XTAP_TAPCELL_ROW_88_3305 VGND VPWR sky130_fd_sc_hd__tapvpwrvgnd_1
XFILLER_0_276_993 VPWR VGND VPWR VGND sky130_ef_sc_hd__decap_12
XTAP_TAPCELL_ROW_256_8435 VGND VPWR sky130_fd_sc_hd__tapvpwrvgnd_1
XFILLER_0_247_161 VGND VGND VPWR VPWR sky130_fd_sc_hd__decap_6
XTAP_TAPCELL_ROW_88_3316 VGND VPWR sky130_fd_sc_hd__tapvpwrvgnd_1
XFILLER_0_177_1009 VPWR VGND VPWR VGND sky130_ef_sc_hd__decap_12
XFILLER_0_202_1577 VPWR VGND VPWR VGND sky130_ef_sc_hd__decap_12
XFILLER_0_276_1645 VGND VGND VPWR VPWR sky130_fd_sc_hd__decap_6
XFILLER_0_78_1117 VPWR VGND VPWR VGND sky130_ef_sc_hd__decap_12
XFILLER_0_257_1033 VPWR VGND VPWR VGND sky130_ef_sc_hd__decap_12
XFILLER_0_21_1341 VGND VGND VPWR VPWR sky130_fd_sc_hd__fill_1
XFILLER_0_263_665 VGND VGND VPWR VPWR sky130_fd_sc_hd__decap_6
XFILLER_0_272_1509 VPWR VGND VPWR VGND sky130_ef_sc_hd__decap_12
XFILLER_0_262_153 VPWR VGND VPWR VGND sky130_ef_sc_hd__decap_12
XFILLER_0_155_27 VPWR VGND VPWR VGND sky130_ef_sc_hd__decap_12
XFILLER_0_276_1689 VPWR VGND VPWR VGND sky130_ef_sc_hd__decap_12
XFILLER_0_218_1017 VPWR VGND VPWR VGND sky130_ef_sc_hd__decap_12
XFILLER_0_3_39 VPWR VGND VPWR VGND sky130_ef_sc_hd__decap_12
XFILLER_0_257_1077 VPWR VGND VPWR VGND sky130_ef_sc_hd__decap_12
XFILLER_0_223_529 VPWR VGND VPWR VGND sky130_ef_sc_hd__decap_12
XFILLER_0_21_1385 VPWR VGND VPWR VGND sky130_ef_sc_hd__decap_12
XFILLER_0_216_581 VGND VGND VPWR VPWR sky130_fd_sc_hd__decap_6
XFILLER_0_262_197 VPWR VGND VPWR VGND sky130_ef_sc_hd__decap_12
XFILLER_0_189_945 VGND VGND VPWR VPWR sky130_fd_sc_hd__decap_6
XFILLER_0_172_1621 VPWR VGND VPWR VGND sky130_ef_sc_hd__decap_12
XTAP_TAPCELL_ROW_269_8807 VGND VPWR sky130_fd_sc_hd__tapvpwrvgnd_1
XFILLER_0_188_433 VPWR VGND VPWR VGND sky130_ef_sc_hd__decap_12
XTAP_TAPCELL_ROW_269_8818 VGND VPWR sky130_fd_sc_hd__tapvpwrvgnd_1
XFILLER_0_133_1605 VPWR VGND VPWR VGND sky130_ef_sc_hd__decap_12
XTAP_TAPCELL_ROW_269_8829 VGND VPWR sky130_fd_sc_hd__tapvpwrvgnd_1
XFILLER_0_149_809 VPWR VGND VPWR VGND sky130_ef_sc_hd__decap_12
XFILLER_0_87_921 VPWR VGND VPWR VGND sky130_ef_sc_hd__decap_12
XFILLER_0_231_573 VPWR VGND VPWR VGND sky130_ef_sc_hd__decap_12
XFILLER_0_192_1091 VGND VGND VPWR VPWR sky130_fd_sc_hd__fill_1
XFILLER_0_189_989 VPWR VGND VPWR VGND sky130_ef_sc_hd__decap_12
XFILLER_0_172_1665 VPWR VGND VPWR VGND sky130_ef_sc_hd__decap_12
XFILLER_0_235_93 VPWR VGND VPWR VGND sky130_ef_sc_hd__decap_12
XFILLER_0_118_1173 VPWR VGND VPWR VGND sky130_ef_sc_hd__decap_12
XFILLER_0_188_477 VPWR VGND VPWR VGND sky130_ef_sc_hd__decap_12
XFILLER_0_171_15 VPWR VGND VPWR VGND sky130_ef_sc_hd__decap_12
XFILLER_0_8_1246 VPWR VGND VPWR VGND sky130_ef_sc_hd__decap_12
XFILLER_0_175_105 VGND VGND VPWR VPWR sky130_fd_sc_hd__decap_6
XFILLER_0_133_1649 VPWR VGND VPWR VGND sky130_ef_sc_hd__decap_12
XFILLER_0_15_1101 VPWR VGND VPWR VGND sky130_ef_sc_hd__decap_12
XFILLER_0_147_3 VPWR VGND VPWR VGND sky130_ef_sc_hd__decap_12
XFILLER_0_114_1037 VPWR VGND VPWR VGND sky130_ef_sc_hd__decap_12
XFILLER_0_19_1281 VGND VGND VPWR VPWR sky130_fd_sc_hd__decap_6
XFILLER_0_54_1161 VPWR VGND VPWR VGND sky130_ef_sc_hd__decap_12
XFILLER_0_58_133 VGND VGND VPWR VPWR sky130_fd_sc_hd__decap_6
XFILLER_0_87_965 VPWR VGND VPWR VGND sky130_ef_sc_hd__decap_12
XFILLER_0_188_1105 VPWR VGND VPWR VGND sky130_ef_sc_hd__decap_12
XFILLER_0_46_306 VGND VGND VPWR VPWR sky130_fd_sc_hd__fill_2
XFILLER_0_213_1673 VGND VGND VPWR VPWR sky130_fd_sc_hd__decap_6
XFILLER_0_175_149 VPWR VGND VPWR VGND sky130_ef_sc_hd__decap_12
XFILLER_0_157_853 VPWR VGND VPWR VGND sky130_ef_sc_hd__decap_12
XFILLER_0_15_1145 VPWR VGND VPWR VGND sky130_ef_sc_hd__decap_12
XFILLER_0_86_475 VGND VGND VPWR VPWR sky130_fd_sc_hd__fill_1
XFILLER_0_191_609 VGND VGND VPWR VPWR sky130_fd_sc_hd__decap_6
XFILLER_0_58_177 VPWR VGND VPWR VGND sky130_ef_sc_hd__decap_12
XFILLER_0_89_1213 VPWR VGND VPWR VGND sky130_ef_sc_hd__decap_12
XFILLER_0_74_637 VGND VGND VPWR VPWR sky130_fd_sc_hd__decap_6
XFILLER_0_188_1149 VPWR VGND VPWR VGND sky130_ef_sc_hd__decap_12
XFILLER_0_11_1009 VPWR VGND VPWR VGND sky130_ef_sc_hd__decap_12
XFILLER_0_73_125 VPWR VGND VPWR VGND sky130_ef_sc_hd__decap_12
XFILLER_0_104_53 VPWR VGND VPWR VGND sky130_ef_sc_hd__decap_12
XFILLER_0_200_993 VPWR VGND VPWR VGND sky130_ef_sc_hd__decap_12
XFILLER_0_156_363 VGND VGND VPWR VPWR sky130_fd_sc_hd__fill_1
XFILLER_0_13_51 VGND VGND VPWR VPWR sky130_fd_sc_hd__decap_4
XFILLER_0_283_1605 VPWR VGND VPWR VGND sky130_ef_sc_hd__decap_12
XFILLER_0_157_897 VPWR VGND VPWR VGND sky130_ef_sc_hd__decap_12
XFILLER_0_15_1189 VPWR VGND VPWR VGND sky130_ef_sc_hd__decap_12
XFILLER_0_39_391 VGND VGND VPWR VPWR sky130_fd_sc_hd__fill_1
XFILLER_0_251_81 VPWR VGND VPWR VGND sky130_ef_sc_hd__decap_12
XFILLER_0_229_1113 VGND VGND VPWR VPWR sky130_fd_sc_hd__decap_6
XFILLER_0_89_1257 VPWR VGND VPWR VGND sky130_ef_sc_hd__decap_12
XFILLER_0_268_1173 VPWR VGND VPWR VGND sky130_ef_sc_hd__decap_12
XFILLER_0_144_525 VGND VGND VPWR VPWR sky130_fd_sc_hd__decap_6
XFILLER_0_27_553 VGND VGND VPWR VPWR sky130_fd_sc_hd__decap_6
XFILLER_0_73_169 VPWR VGND VPWR VGND sky130_ef_sc_hd__decap_12
XFILLER_0_104_97 VPWR VGND VPWR VGND sky130_ef_sc_hd__decap_12
XFILLER_0_283_1649 VPWR VGND VPWR VGND sky130_ef_sc_hd__decap_12
XFILLER_0_183_193 VPWR VGND VPWR VGND sky130_ef_sc_hd__decap_12
XFILLER_0_172_867 VGND VGND VPWR VPWR sky130_fd_sc_hd__fill_1
XFILLER_0_42_501 VPWR VGND VPWR VGND sky130_ef_sc_hd__decap_12
XFILLER_0_67_1511 VGND VGND VPWR VPWR sky130_fd_sc_hd__fill_1
XFILLER_0_264_1037 VPWR VGND VPWR VGND sky130_ef_sc_hd__decap_12
XFILLER_0_229_1157 VPWR VGND VPWR VGND sky130_ef_sc_hd__decap_12
XFILLER_0_144_569 VPWR VGND VPWR VGND sky130_ef_sc_hd__decap_12
XFILLER_0_55_895 VGND VGND VPWR VPWR sky130_fd_sc_hd__fill_1
XFILLER_0_82_681 VPWR VGND VPWR VGND sky130_ef_sc_hd__decap_12
XFILLER_0_27_597 VPWR VGND VPWR VGND sky130_ef_sc_hd__decap_12
XFILLER_0_89_55 VGND VGND VPWR VPWR sky130_fd_sc_hd__fill_1
XFILLER_0_144_1701 VGND VGND VPWR VPWR sky130_fd_sc_hd__decap_6
XFILLER_0_42_545 VPWR VGND VPWR VGND sky130_ef_sc_hd__decap_12
XFILLER_0_125_783 VGND VGND VPWR VPWR sky130_fd_sc_hd__fill_1
XFILLER_0_120_41 VPWR VGND VPWR VGND sky130_ef_sc_hd__decap_12
XTAP_TAPCELL_ROW_222_7402 VGND VPWR sky130_fd_sc_hd__tapvpwrvgnd_1
XFILLER_0_113_945 VGND VGND VPWR VPWR sky130_fd_sc_hd__decap_6
XFILLER_0_28_1539 VGND VGND VPWR VPWR sky130_fd_sc_hd__fill_1
XFILLER_0_207_1455 VGND VGND VPWR VPWR sky130_fd_sc_hd__fill_1
XFILLER_0_112_433 VPWR VGND VPWR VGND sky130_ef_sc_hd__decap_12
XANTENNA__304__A net265 VGND VGND VPWR VPWR sky130_fd_sc_hd__diode_2
XFILLER_0_42_589 VPWR VGND VPWR VGND sky130_ef_sc_hd__decap_12
XFILLER_0_125_1133 VPWR VGND VPWR VGND sky130_ef_sc_hd__decap_12
XFILLER_0_120_85 VPWR VGND VPWR VGND sky130_ef_sc_hd__decap_12
XFILLER_0_2_653 VGND VGND VPWR VPWR sky130_fd_sc_hd__decap_4
XFILLER_0_199_1201 VPWR VGND VPWR VGND sky130_ef_sc_hd__decap_12
XFILLER_0_160_1035 VGND VGND VPWR VPWR sky130_fd_sc_hd__fill_1
XFILLER_0_140_1609 VPWR VGND VPWR VGND sky130_ef_sc_hd__decap_12
XFILLER_0_113_989 VPWR VGND VPWR VGND sky130_ef_sc_hd__decap_12
XFILLER_0_112_477 VPWR VGND VPWR VGND sky130_ef_sc_hd__decap_12
XFILLER_0_11_943 VGND VGND VPWR VPWR sky130_fd_sc_hd__decap_8
XFILLER_0_26_1241 VPWR VGND VPWR VGND sky130_ef_sc_hd__decap_12
XFILLER_0_61_1121 VPWR VGND VPWR VGND sky130_ef_sc_hd__decap_12
XFILLER_0_125_1177 VPWR VGND VPWR VGND sky130_ef_sc_hd__decap_12
XFILLER_0_11_965 VPWR VGND VPWR VGND sky130_ef_sc_hd__decap_12
XFILLER_0_220_1633 VPWR VGND VPWR VGND sky130_ef_sc_hd__decap_12
XFILLER_0_199_1245 VPWR VGND VPWR VGND sky130_ef_sc_hd__decap_12
XFILLER_0_239_673 VPWR VGND VPWR VGND sky130_ef_sc_hd__decap_12
XFILLER_0_273_429 VPWR VGND VPWR VGND sky130_ef_sc_hd__decap_12
XFILLER_0_201_1021 VPWR VGND VPWR VGND sky130_ef_sc_hd__decap_12
XFILLER_0_26_1285 VPWR VGND VPWR VGND sky130_ef_sc_hd__decap_12
XTAP_TAPCELL_ROW_239_7910 VGND VPWR sky130_fd_sc_hd__tapvpwrvgnd_1
XFILLER_0_226_301 VGND VGND VPWR VPWR sky130_fd_sc_hd__decap_6
XANTENNA__633__CLK clknet_leaf_8_clk VGND VGND VPWR VPWR sky130_fd_sc_hd__diode_2
XFILLER_0_10_475 VGND VGND VPWR VPWR sky130_fd_sc_hd__fill_1
XTAP_TAPCELL_ROW_239_7921 VGND VPWR sky130_fd_sc_hd__tapvpwrvgnd_1
XFILLER_0_220_1677 VPWR VGND VPWR VGND sky130_ef_sc_hd__decap_12
XFILLER_0_199_1289 VPWR VGND VPWR VGND sky130_ef_sc_hd__decap_12
XFILLER_0_254_643 VGND VGND VPWR VPWR sky130_fd_sc_hd__fill_1
XFILLER_0_201_1065 VPWR VGND VPWR VGND sky130_ef_sc_hd__decap_12
XFILLER_0_226_345 VPWR VGND VPWR VGND sky130_ef_sc_hd__decap_12
XFILLER_0_96_1217 VPWR VGND VPWR VGND sky130_ef_sc_hd__decap_12
XFILLER_0_275_1133 VPWR VGND VPWR VGND sky130_ef_sc_hd__decap_12
XFILLER_0_242_805 VGND VGND VPWR VPWR sky130_fd_sc_hd__decap_6
XFILLER_0_199_709 VPWR VGND VPWR VGND sky130_ef_sc_hd__decap_12
XFILLER_0_281_473 VPWR VGND VPWR VGND sky130_ef_sc_hd__decap_12
XFILLER_0_236_1117 VPWR VGND VPWR VGND sky130_ef_sc_hd__decap_12
XFILLER_0_226_389 VPWR VGND VPWR VGND sky130_ef_sc_hd__decap_12
XTAP_TAPCELL_ROW_216_7206 VGND VPWR sky130_fd_sc_hd__tapvpwrvgnd_1
XFILLER_0_78_1651 VGND VGND VPWR VPWR sky130_fd_sc_hd__fill_1
XFILLER_0_275_1177 VPWR VGND VPWR VGND sky130_ef_sc_hd__decap_12
XFILLER_0_242_849 VPWR VGND VPWR VGND sky130_ef_sc_hd__decap_12
XTAP_TAPCELL_ROW_216_7217 VGND VPWR sky130_fd_sc_hd__tapvpwrvgnd_1
XFILLER_0_241_337 VPWR VGND VPWR VGND sky130_ef_sc_hd__decap_12
XFILLER_0_97_729 VPWR VGND VPWR VGND sky130_ef_sc_hd__decap_12
XTAP_TAPCELL_ROW_285_9310 VGND VPWR sky130_fd_sc_hd__tapvpwrvgnd_1
XFILLER_0_151_1705 VGND VGND VPWR VPWR sky130_fd_sc_hd__decap_6
XFILLER_0_39_1679 VGND VGND VPWR VPWR sky130_fd_sc_hd__fill_1
XTAP_TAPCELL_ROW_285_9321 VGND VPWR sky130_fd_sc_hd__tapvpwrvgnd_1
XFILLER_0_218_1595 VGND VGND VPWR VPWR sky130_fd_sc_hd__fill_1
XFILLER_0_210_713 VPWR VGND VPWR VGND sky130_ef_sc_hd__decap_12
XPHY_EDGE_ROW_153_Left_439 VGND VGND VPWR VPWR sky130_fd_sc_hd__decap_3