*SPEF "ieee 1481-1999"
*DESIGN "shifter"
*DATE "07:30:27 Monday June 17, 2024"
*VENDOR "The OpenROAD Project"
*PROGRAM "OpenROAD"
*VERSION "0889970d1790a2617e69f253221b8bd7626e51dc"
*DESIGN_FLOW "NAME_SCOPE LOCAL" "PIN_CAP NONE"
*DIVIDER /
*DELIMITER :
*BUS_DELIMITER []
*T_UNIT 1 NS
*C_UNIT 1 PF
*R_UNIT 1 OHM
*L_UNIT 1 HENRY

*NAME_MAP
*3 clk
*4 input_pc[0]
*5 input_pc[10]
*6 input_pc[11]
*7 input_pc[12]
*8 input_pc[13]
*9 input_pc[14]
*10 input_pc[15]
*11 input_pc[1]
*12 input_pc[2]
*13 input_pc[3]
*14 input_pc[4]
*15 input_pc[5]
*16 input_pc[6]
*17 input_pc[7]
*18 input_pc[8]
*19 input_pc[9]
*20 output_ai[0]
*21 output_ai[100]
*22 output_ai[101]
*23 output_ai[102]
*24 output_ai[103]
*25 output_ai[104]
*26 output_ai[105]
*27 output_ai[106]
*28 output_ai[107]
*29 output_ai[108]
*30 output_ai[109]
*31 output_ai[10]
*32 output_ai[110]
*33 output_ai[111]
*34 output_ai[112]
*35 output_ai[113]
*36 output_ai[114]
*37 output_ai[115]
*38 output_ai[116]
*39 output_ai[117]
*40 output_ai[118]
*41 output_ai[119]
*42 output_ai[11]
*43 output_ai[120]
*44 output_ai[121]
*45 output_ai[122]
*46 output_ai[123]
*47 output_ai[124]
*48 output_ai[125]
*49 output_ai[126]
*50 output_ai[127]
*51 output_ai[128]
*52 output_ai[129]
*53 output_ai[12]
*54 output_ai[130]
*55 output_ai[131]
*56 output_ai[132]
*57 output_ai[133]
*58 output_ai[134]
*59 output_ai[135]
*60 output_ai[136]
*61 output_ai[137]
*62 output_ai[138]
*63 output_ai[139]
*64 output_ai[13]
*65 output_ai[140]
*66 output_ai[141]
*67 output_ai[142]
*68 output_ai[143]
*69 output_ai[144]
*70 output_ai[145]
*71 output_ai[146]
*72 output_ai[147]
*73 output_ai[148]
*74 output_ai[149]
*75 output_ai[14]
*76 output_ai[150]
*77 output_ai[151]
*78 output_ai[152]
*79 output_ai[153]
*80 output_ai[154]
*81 output_ai[155]
*82 output_ai[156]
*83 output_ai[157]
*84 output_ai[158]
*85 output_ai[159]
*86 output_ai[15]
*87 output_ai[160]
*88 output_ai[161]
*89 output_ai[162]
*90 output_ai[163]
*91 output_ai[164]
*92 output_ai[165]
*93 output_ai[166]
*94 output_ai[167]
*95 output_ai[168]
*96 output_ai[169]
*97 output_ai[16]
*98 output_ai[170]
*99 output_ai[171]
*100 output_ai[172]
*101 output_ai[173]
*102 output_ai[174]
*103 output_ai[175]
*104 output_ai[176]
*105 output_ai[177]
*106 output_ai[178]
*107 output_ai[179]
*108 output_ai[17]
*109 output_ai[180]
*110 output_ai[181]
*111 output_ai[182]
*112 output_ai[183]
*113 output_ai[184]
*114 output_ai[185]
*115 output_ai[186]
*116 output_ai[187]
*117 output_ai[188]
*118 output_ai[189]
*119 output_ai[18]
*120 output_ai[190]
*121 output_ai[191]
*122 output_ai[192]
*123 output_ai[193]
*124 output_ai[194]
*125 output_ai[195]
*126 output_ai[196]
*127 output_ai[197]
*128 output_ai[198]
*129 output_ai[199]
*130 output_ai[19]
*131 output_ai[1]
*132 output_ai[200]
*133 output_ai[201]
*134 output_ai[202]
*135 output_ai[203]
*136 output_ai[204]
*137 output_ai[205]
*138 output_ai[206]
*139 output_ai[207]
*140 output_ai[208]
*141 output_ai[209]
*142 output_ai[20]
*143 output_ai[210]
*144 output_ai[211]
*145 output_ai[212]
*146 output_ai[213]
*147 output_ai[214]
*148 output_ai[215]
*149 output_ai[216]
*150 output_ai[217]
*151 output_ai[218]
*152 output_ai[219]
*153 output_ai[21]
*154 output_ai[220]
*155 output_ai[221]
*156 output_ai[222]
*157 output_ai[223]
*158 output_ai[224]
*159 output_ai[225]
*160 output_ai[226]
*161 output_ai[227]
*162 output_ai[228]
*163 output_ai[229]
*164 output_ai[22]
*165 output_ai[230]
*166 output_ai[231]
*167 output_ai[232]
*168 output_ai[233]
*169 output_ai[234]
*170 output_ai[235]
*171 output_ai[236]
*172 output_ai[237]
*173 output_ai[238]
*174 output_ai[239]
*175 output_ai[23]
*176 output_ai[24]
*177 output_ai[25]
*178 output_ai[26]
*179 output_ai[27]
*180 output_ai[28]
*181 output_ai[29]
*182 output_ai[2]
*183 output_ai[30]
*184 output_ai[31]
*185 output_ai[32]
*186 output_ai[33]
*187 output_ai[34]
*188 output_ai[35]
*189 output_ai[36]
*190 output_ai[37]
*191 output_ai[38]
*192 output_ai[39]
*193 output_ai[3]
*194 output_ai[40]
*195 output_ai[41]
*196 output_ai[42]
*197 output_ai[43]
*198 output_ai[44]
*199 output_ai[45]
*200 output_ai[46]
*201 output_ai[47]
*202 output_ai[48]
*203 output_ai[49]
*204 output_ai[4]
*205 output_ai[50]
*206 output_ai[51]
*207 output_ai[52]
*208 output_ai[53]
*209 output_ai[54]
*210 output_ai[55]
*211 output_ai[56]
*212 output_ai[57]
*213 output_ai[58]
*214 output_ai[59]
*215 output_ai[5]
*216 output_ai[60]
*217 output_ai[61]
*218 output_ai[62]
*219 output_ai[63]
*220 output_ai[64]
*221 output_ai[65]
*222 output_ai[66]
*223 output_ai[67]
*224 output_ai[68]
*225 output_ai[69]
*226 output_ai[6]
*227 output_ai[70]
*228 output_ai[71]
*229 output_ai[72]
*230 output_ai[73]
*231 output_ai[74]
*232 output_ai[75]
*233 output_ai[76]
*234 output_ai[77]
*235 output_ai[78]
*236 output_ai[79]
*237 output_ai[7]
*238 output_ai[80]
*239 output_ai[81]
*240 output_ai[82]
*241 output_ai[83]
*242 output_ai[84]
*243 output_ai[85]
*244 output_ai[86]
*245 output_ai[87]
*246 output_ai[88]
*247 output_ai[89]
*248 output_ai[8]
*249 output_ai[90]
*250 output_ai[91]
*251 output_ai[92]
*252 output_ai[93]
*253 output_ai[94]
*254 output_ai[95]
*255 output_ai[96]
*256 output_ai[97]
*257 output_ai[98]
*258 output_ai[99]
*259 output_ai[9]
*260 reset
*261 _000_
*262 _001_
*263 _002_
*264 _003_
*265 _004_
*266 _005_
*267 _006_
*268 _007_
*269 _008_
*270 _009_
*271 _010_
*272 _011_
*273 _012_
*274 _013_
*275 _014_
*276 _015_
*277 _016_
*278 _017_
*279 _018_
*280 _019_
*281 _020_
*282 _021_
*283 _022_
*284 _023_
*285 _024_
*286 _025_
*287 _026_
*288 _027_
*289 _028_
*290 _029_
*291 _030_
*292 _031_
*293 _032_
*294 _033_
*295 _034_
*296 _035_
*297 _036_
*298 _037_
*299 _038_
*300 _039_
*301 _040_
*302 _041_
*303 _042_
*304 _043_
*305 _044_
*306 _045_
*307 _046_
*308 _047_
*309 _048_
*310 _049_
*311 _050_
*312 _051_
*313 _052_
*314 _053_
*315 _054_
*316 _055_
*317 _056_
*318 _057_
*319 _058_
*320 _059_
*321 _060_
*322 _061_
*323 _062_
*324 _063_
*325 _064_
*326 _065_
*327 _066_
*328 _067_
*329 _068_
*330 _069_
*331 _070_
*332 _071_
*333 _072_
*334 _073_
*335 _074_
*336 _075_
*337 _076_
*338 _077_
*339 _078_
*340 _079_
*341 _080_
*342 _081_
*343 _082_
*344 _083_
*345 _084_
*346 _085_
*347 _086_
*348 _087_
*349 _088_
*350 _089_
*351 _090_
*352 _091_
*353 _092_
*354 _093_
*355 _094_
*356 _095_
*357 _096_
*358 _097_
*359 _098_
*360 _099_
*361 _100_
*362 _101_
*363 _102_
*364 _103_
*365 _104_
*366 _105_
*367 _106_
*368 _107_
*369 _108_
*370 _109_
*371 _110_
*372 _111_
*373 _112_
*374 _113_
*375 _114_
*376 _115_
*377 _116_
*378 _117_
*379 _118_
*380 _119_
*381 _120_
*382 _121_
*383 _122_
*384 _123_
*385 _124_
*386 _125_
*387 _126_
*388 _127_
*389 _128_
*390 _129_
*391 _130_
*392 _131_
*393 _132_
*394 _133_
*395 _134_
*396 _135_
*397 _136_
*398 _137_
*399 _138_
*400 _139_
*401 _140_
*402 _141_
*403 _142_
*404 _143_
*405 _144_
*406 _145_
*407 _146_
*408 _147_
*409 _148_
*410 _149_
*411 _150_
*412 _151_
*413 _152_
*414 _153_
*415 _154_
*416 _155_
*417 _156_
*418 _157_
*419 _158_
*420 _159_
*421 _160_
*422 _161_
*423 _162_
*424 _163_
*425 _164_
*426 _165_
*427 _166_
*428 _167_
*429 _168_
*430 _169_
*431 _170_
*432 _171_
*433 _172_
*434 _173_
*435 _174_
*436 _175_
*437 _176_
*438 _177_
*439 _178_
*440 _179_
*441 _180_
*442 _181_
*443 _182_
*444 _183_
*445 _184_
*446 _185_
*447 _186_
*448 _187_
*449 _188_
*450 _189_
*451 _190_
*452 _191_
*453 _192_
*454 _193_
*455 _194_
*456 _195_
*457 _196_
*458 _197_
*459 _198_
*460 _199_
*461 _200_
*462 _201_
*463 _202_
*464 _203_
*465 _204_
*466 _205_
*467 _206_
*468 _207_
*469 _208_
*470 _209_
*471 _210_
*472 _211_
*473 _212_
*474 _213_
*475 _214_
*476 _215_
*477 _216_
*478 _217_
*479 _218_
*480 _219_
*481 _220_
*482 _221_
*483 _222_
*484 _223_
*485 _224_
*486 _225_
*487 _226_
*488 _227_
*489 _228_
*490 _229_
*491 _230_
*492 _231_
*493 _232_
*494 _233_
*495 _234_
*496 _235_
*497 _236_
*498 _237_
*499 _238_
*500 _239_
*501 clknet_0_clk
*502 clknet_1_0__leaf_clk
*503 clknet_1_1__leaf_clk
*504 clknet_leaf_0_clk
*505 clknet_leaf_10_clk
*506 clknet_leaf_11_clk
*507 clknet_leaf_12_clk
*508 clknet_leaf_13_clk
*509 clknet_leaf_14_clk
*510 clknet_leaf_15_clk
*511 clknet_leaf_16_clk
*512 clknet_leaf_17_clk
*513 clknet_leaf_18_clk
*514 clknet_leaf_19_clk
*515 clknet_leaf_1_clk
*516 clknet_leaf_20_clk
*517 clknet_leaf_21_clk
*518 clknet_leaf_22_clk
*519 clknet_leaf_2_clk
*520 clknet_leaf_3_clk
*521 clknet_leaf_4_clk
*522 clknet_leaf_5_clk
*523 clknet_leaf_6_clk
*524 clknet_leaf_7_clk
*525 clknet_leaf_8_clk
*526 clknet_leaf_9_clk
*527 net1
*528 net10
*529 net100
*530 net101
*531 net102
*532 net103
*533 net104
*534 net105
*535 net106
*536 net107
*537 net108
*538 net109
*539 net11
*540 net110
*541 net111
*542 net112
*543 net113
*544 net114
*545 net115
*546 net116
*547 net117
*548 net118
*549 net119
*550 net12
*551 net120
*552 net121
*553 net122
*554 net123
*555 net124
*556 net125
*557 net126
*558 net127
*559 net128
*560 net129
*561 net13
*562 net130
*563 net131
*564 net132
*565 net133
*566 net134
*567 net135
*568 net136
*569 net137
*570 net138
*571 net139
*572 net14
*573 net140
*574 net141
*575 net142
*576 net143
*577 net144
*578 net145
*579 net146
*580 net147
*581 net148
*582 net149
*583 net15
*584 net150
*585 net151
*586 net152
*587 net153
*588 net154
*589 net155
*590 net156
*591 net157
*592 net158
*593 net159
*594 net16
*595 net160
*596 net161
*597 net162
*598 net163
*599 net164
*600 net165
*601 net166
*602 net167
*603 net168
*604 net169
*605 net17
*606 net170
*607 net171
*608 net172
*609 net173
*610 net174
*611 net175
*612 net176
*613 net177
*614 net178
*615 net179
*616 net18
*617 net180
*618 net181
*619 net182
*620 net183
*621 net184
*622 net185
*623 net186
*624 net187
*625 net188
*626 net189
*627 net19
*628 net190
*629 net191
*630 net192
*631 net193
*632 net194
*633 net195
*634 net196
*635 net197
*636 net198
*637 net199
*638 net2
*639 net20
*640 net200
*641 net201
*642 net202
*643 net203
*644 net204
*645 net205
*646 net206
*647 net207
*648 net208
*649 net209
*650 net21
*651 net210
*652 net211
*653 net212
*654 net213
*655 net214
*656 net215
*657 net216
*658 net217
*659 net218
*660 net219
*661 net22
*662 net220
*663 net221
*664 net222
*665 net223
*666 net224
*667 net225
*668 net226
*669 net227
*670 net228
*671 net229
*672 net23
*673 net230
*674 net231
*675 net232
*676 net233
*677 net234
*678 net235
*679 net236
*680 net237
*681 net238
*682 net239
*683 net24
*684 net240
*685 net241
*686 net242
*687 net243
*688 net244
*689 net245
*690 net246
*691 net247
*692 net248
*693 net249
*694 net25
*695 net250
*696 net251
*697 net252
*698 net253
*699 net254
*700 net255
*701 net256
*702 net257
*703 net258
*704 net259
*705 net26
*706 net260
*707 net261
*708 net262
*709 net263
*710 net264
*711 net265
*712 net266
*713 net267
*714 net268
*715 net269
*716 net27
*717 net270
*718 net271
*719 net272
*720 net273
*721 net274
*722 net275
*723 net276
*724 net277
*725 net278
*726 net279
*727 net28
*728 net280
*729 net281
*730 net282
*731 net283
*732 net284
*733 net285
*734 net286
*735 net287
*736 net288
*737 net289
*738 net29
*739 net290
*740 net291
*741 net292
*742 net293
*743 net294
*744 net295
*745 net296
*746 net297
*747 net298
*748 net299
*749 net3
*750 net30
*751 net300
*752 net301
*753 net302
*754 net303
*755 net304
*756 net305
*757 net306
*758 net307
*759 net308
*760 net309
*761 net31
*762 net310
*763 net311
*764 net312
*765 net313
*766 net314
*767 net315
*768 net316
*769 net317
*770 net318
*771 net319
*772 net32
*773 net320
*774 net321
*775 net322
*776 net323
*777 net324
*778 net325
*779 net326
*780 net327
*781 net328
*782 net329
*783 net33
*784 net330
*785 net331
*786 net332
*787 net333
*788 net334
*789 net335
*790 net336
*791 net337
*792 net338
*793 net339
*794 net34
*795 net340
*796 net341
*797 net342
*798 net343
*799 net344
*800 net345
*801 net346
*802 net347
*803 net348
*804 net349
*805 net35
*806 net350
*807 net351
*808 net352
*809 net353
*810 net354
*811 net355
*812 net356
*813 net357
*814 net358
*815 net359
*816 net36
*817 net360
*818 net361
*819 net362
*820 net363
*821 net364
*822 net365
*823 net366
*824 net367
*825 net368
*826 net369
*827 net37
*828 net370
*829 net371
*830 net372
*831 net373
*832 net374
*833 net375
*834 net376
*835 net377
*836 net378
*837 net379
*838 net38
*839 net380
*840 net381
*841 net382
*842 net383
*843 net384
*844 net385
*845 net386
*846 net387
*847 net388
*848 net389
*849 net39
*850 net390
*851 net391
*852 net392
*853 net393
*854 net394
*855 net395
*856 net396
*857 net397
*858 net398
*859 net399
*860 net4
*861 net40
*862 net400
*863 net401
*864 net402
*865 net403
*866 net404
*867 net405
*868 net406
*869 net407
*870 net408
*871 net409
*872 net41
*873 net410
*874 net411
*875 net412
*876 net413
*877 net414
*878 net415
*879 net416
*880 net417
*881 net418
*882 net419
*883 net42
*884 net420
*885 net421
*886 net422
*887 net423
*888 net424
*889 net425
*890 net426
*891 net427
*892 net428
*893 net429
*894 net43
*895 net430
*896 net431
*897 net432
*898 net433
*899 net434
*900 net435
*901 net436
*902 net437
*903 net438
*904 net439
*905 net44
*906 net440
*907 net441
*908 net442
*909 net443
*910 net444
*911 net445
*912 net446
*913 net447
*914 net448
*915 net449
*916 net45
*917 net450
*918 net451
*919 net452
*920 net453
*921 net454
*922 net455
*923 net456
*924 net457
*925 net458
*926 net459
*927 net46
*928 net460
*929 net461
*930 net462
*931 net463
*932 net464
*933 net465
*934 net466
*935 net467
*936 net468
*937 net469
*938 net47
*939 net470
*940 net471
*941 net472
*942 net473
*943 net474
*944 net475
*945 net476
*946 net477
*947 net478
*948 net479
*949 net48
*950 net480
*951 net481
*952 net482
*953 net483
*954 net484
*955 net485
*956 net486
*957 net487
*958 net488
*959 net489
*960 net49
*961 net490
*962 net491
*963 net492
*964 net493
*965 net494
*966 net495
*967 net496
*968 net497
*969 net498
*970 net499
*971 net5
*972 net50
*973 net500
*974 net501
*975 net502
*976 net503
*977 net504
*978 net505
*979 net506
*980 net507
*981 net508
*982 net509
*983 net51
*984 net510
*985 net511
*986 net512
*987 net52
*988 net53
*989 net54
*990 net55
*991 net56
*992 net57
*993 net58
*994 net59
*995 net6
*996 net60
*997 net61
*998 net62
*999 net63
*1000 net64
*1001 net65
*1002 net66
*1003 net67
*1004 net68
*1005 net69
*1006 net7
*1007 net70
*1008 net71
*1009 net72
*1010 net73
*1011 net74
*1012 net75
*1013 net76
*1014 net77
*1015 net78
*1016 net79
*1017 net8
*1018 net80
*1019 net81
*1020 net82
*1021 net83
*1022 net84
*1023 net85
*1024 net86
*1025 net87
*1026 net88
*1027 net89
*1028 net9
*1029 net90
*1030 net91
*1031 net92
*1032 net93
*1033 net94
*1034 net95
*1035 net96
*1036 net97
*1037 net98
*1038 net99
*1039 ANTENNA_1
*1040 ANTENNA_2
*1041 ANTENNA_3
*1042 FILLER_0_0_113
*1043 FILLER_0_0_141
*1044 FILLER_0_0_15
*1045 FILLER_0_0_169
*1046 FILLER_0_0_197
*1047 FILLER_0_0_225
*1048 FILLER_0_0_253
*1049 FILLER_0_0_27
*1050 FILLER_0_0_281
*1051 FILLER_0_0_29
*1052 FILLER_0_0_3
*1053 FILLER_0_0_307
*1054 FILLER_0_0_333
*1055 FILLER_0_0_35
*1056 FILLER_0_0_361
*1057 FILLER_0_0_389
*1058 FILLER_0_0_417
*1059 FILLER_0_0_445
*1060 FILLER_0_0_473
*1061 FILLER_0_0_501
*1062 FILLER_0_0_521
*1063 FILLER_0_0_529
*1064 FILLER_0_0_557
*1065 FILLER_0_0_569
*1066 FILLER_0_0_57
*1067 FILLER_0_0_577
*1068 FILLER_0_0_85
*1069 FILLER_0_10_104
*1070 FILLER_0_10_127
*1071 FILLER_0_10_139
*1072 FILLER_0_10_141
*1073 FILLER_0_10_15
*1074 FILLER_0_10_169
*1075 FILLER_0_10_181
*1076 FILLER_0_10_193
*1077 FILLER_0_10_200
*1078 FILLER_0_10_21
*1079 FILLER_0_10_212
*1080 FILLER_0_10_220
*1081 FILLER_0_10_224
*1082 FILLER_0_10_236
*1083 FILLER_0_10_248
*1084 FILLER_0_10_264
*1085 FILLER_0_10_276
*1086 FILLER_0_10_284
*1087 FILLER_0_10_29
*1088 FILLER_0_10_3
*1089 FILLER_0_10_306
*1090 FILLER_0_10_309
*1091 FILLER_0_10_317
*1092 FILLER_0_10_342
*1093 FILLER_0_10_356
*1094 FILLER_0_10_368
*1095 FILLER_0_10_380
*1096 FILLER_0_10_41
*1097 FILLER_0_10_413
*1098 FILLER_0_10_419
*1099 FILLER_0_10_421
*1100 FILLER_0_10_448
*1101 FILLER_0_10_452
*1102 FILLER_0_10_461
*1103 FILLER_0_10_473
*1104 FILLER_0_10_477
*1105 FILLER_0_10_485
*1106 FILLER_0_10_510
*1107 FILLER_0_10_522
*1108 FILLER_0_10_53
*1109 FILLER_0_10_530
*1110 FILLER_0_10_533
*1111 FILLER_0_10_545
*1112 FILLER_0_10_573
*1113 FILLER_0_10_579
*1114 FILLER_0_10_65
*1115 FILLER_0_10_77
*1116 FILLER_0_10_83
*1117 FILLER_0_10_85
*1118 FILLER_0_10_92
*1119 FILLER_0_11_103
*1120 FILLER_0_11_11
*1121 FILLER_0_11_113
*1122 FILLER_0_11_125
*1123 FILLER_0_11_137
*1124 FILLER_0_11_147
*1125 FILLER_0_11_159
*1126 FILLER_0_11_167
*1127 FILLER_0_11_169
*1128 FILLER_0_11_175
*1129 FILLER_0_11_204
*1130 FILLER_0_11_245
*1131 FILLER_0_11_271
*1132 FILLER_0_11_279
*1133 FILLER_0_11_289
*1134 FILLER_0_11_3
*1135 FILLER_0_11_301
*1136 FILLER_0_11_313
*1137 FILLER_0_11_322
*1138 FILLER_0_11_334
*1139 FILLER_0_11_337
*1140 FILLER_0_11_34
*1141 FILLER_0_11_349
*1142 FILLER_0_11_361
*1143 FILLER_0_11_373
*1144 FILLER_0_11_385
*1145 FILLER_0_11_391
*1146 FILLER_0_11_393
*1147 FILLER_0_11_405
*1148 FILLER_0_11_417
*1149 FILLER_0_11_427
*1150 FILLER_0_11_439
*1151 FILLER_0_11_447
*1152 FILLER_0_11_449
*1153 FILLER_0_11_46
*1154 FILLER_0_11_461
*1155 FILLER_0_11_473
*1156 FILLER_0_11_485
*1157 FILLER_0_11_497
*1158 FILLER_0_11_503
*1159 FILLER_0_11_511
*1160 FILLER_0_11_535
*1161 FILLER_0_11_54
*1162 FILLER_0_11_547
*1163 FILLER_0_11_559
*1164 FILLER_0_11_57
*1165 FILLER_0_11_572
*1166 FILLER_0_11_69
*1167 FILLER_0_11_74
*1168 FILLER_0_11_78
*1169 FILLER_0_11_99
*1170 FILLER_0_12_105
*1171 FILLER_0_12_117
*1172 FILLER_0_12_128
*1173 FILLER_0_12_141
*1174 FILLER_0_12_153
*1175 FILLER_0_12_165
*1176 FILLER_0_12_177
*1177 FILLER_0_12_189
*1178 FILLER_0_12_195
*1179 FILLER_0_12_197
*1180 FILLER_0_12_209
*1181 FILLER_0_12_221
*1182 FILLER_0_12_233
*1183 FILLER_0_12_245
*1184 FILLER_0_12_251
*1185 FILLER_0_12_273
*1186 FILLER_0_12_279
*1187 FILLER_0_12_288
*1188 FILLER_0_12_3
*1189 FILLER_0_12_300
*1190 FILLER_0_12_309
*1191 FILLER_0_12_321
*1192 FILLER_0_12_333
*1193 FILLER_0_12_345
*1194 FILLER_0_12_357
*1195 FILLER_0_12_363
*1196 FILLER_0_12_365
*1197 FILLER_0_12_377
*1198 FILLER_0_12_389
*1199 FILLER_0_12_397
*1200 FILLER_0_12_402
*1201 FILLER_0_12_414
*1202 FILLER_0_12_421
*1203 FILLER_0_12_43
*1204 FILLER_0_12_433
*1205 FILLER_0_12_442
*1206 FILLER_0_12_454
*1207 FILLER_0_12_480
*1208 FILLER_0_12_491
*1209 FILLER_0_12_503
*1210 FILLER_0_12_51
*1211 FILLER_0_12_515
*1212 FILLER_0_12_527
*1213 FILLER_0_12_531
*1214 FILLER_0_12_533
*1215 FILLER_0_12_545
*1216 FILLER_0_12_553
*1217 FILLER_0_12_572
*1218 FILLER_0_12_7
*1219 FILLER_0_12_74
*1220 FILLER_0_12_82
*1221 FILLER_0_12_93
*1222 FILLER_0_13_105
*1223 FILLER_0_13_11
*1224 FILLER_0_13_111
*1225 FILLER_0_13_113
*1226 FILLER_0_13_136
*1227 FILLER_0_13_148
*1228 FILLER_0_13_160
*1229 FILLER_0_13_165
*1230 FILLER_0_13_169
*1231 FILLER_0_13_181
*1232 FILLER_0_13_193
*1233 FILLER_0_13_205
*1234 FILLER_0_13_21
*1235 FILLER_0_13_217
*1236 FILLER_0_13_223
*1237 FILLER_0_13_225
*1238 FILLER_0_13_237
*1239 FILLER_0_13_249
*1240 FILLER_0_13_257
*1241 FILLER_0_13_262
*1242 FILLER_0_13_274
*1243 FILLER_0_13_28
*1244 FILLER_0_13_281
*1245 FILLER_0_13_3
*1246 FILLER_0_13_305
*1247 FILLER_0_13_317
*1248 FILLER_0_13_329
*1249 FILLER_0_13_335
*1250 FILLER_0_13_337
*1251 FILLER_0_13_349
*1252 FILLER_0_13_376
*1253 FILLER_0_13_40
*1254 FILLER_0_13_413
*1255 FILLER_0_13_447
*1256 FILLER_0_13_449
*1257 FILLER_0_13_459
*1258 FILLER_0_13_471
*1259 FILLER_0_13_483
*1260 FILLER_0_13_495
*1261 FILLER_0_13_503
*1262 FILLER_0_13_505
*1263 FILLER_0_13_517
*1264 FILLER_0_13_52
*1265 FILLER_0_13_529
*1266 FILLER_0_13_537
*1267 FILLER_0_13_564
*1268 FILLER_0_13_57
*1269 FILLER_0_13_576
*1270 FILLER_0_13_69
*1271 FILLER_0_13_81
*1272 FILLER_0_13_93
*1273 FILLER_0_14_100
*1274 FILLER_0_14_112
*1275 FILLER_0_14_124
*1276 FILLER_0_14_136
*1277 FILLER_0_14_141
*1278 FILLER_0_14_15
*1279 FILLER_0_14_178
*1280 FILLER_0_14_190
*1281 FILLER_0_14_197
*1282 FILLER_0_14_202
*1283 FILLER_0_14_214
*1284 FILLER_0_14_226
*1285 FILLER_0_14_238
*1286 FILLER_0_14_250
*1287 FILLER_0_14_253
*1288 FILLER_0_14_265
*1289 FILLER_0_14_27
*1290 FILLER_0_14_277
*1291 FILLER_0_14_289
*1292 FILLER_0_14_29
*1293 FILLER_0_14_295
*1294 FILLER_0_14_3
*1295 FILLER_0_14_305
*1296 FILLER_0_14_309
*1297 FILLER_0_14_342
*1298 FILLER_0_14_346
*1299 FILLER_0_14_355
*1300 FILLER_0_14_363
*1301 FILLER_0_14_371
*1302 FILLER_0_14_383
*1303 FILLER_0_14_395
*1304 FILLER_0_14_407
*1305 FILLER_0_14_41
*1306 FILLER_0_14_419
*1307 FILLER_0_14_421
*1308 FILLER_0_14_433
*1309 FILLER_0_14_445
*1310 FILLER_0_14_457
*1311 FILLER_0_14_469
*1312 FILLER_0_14_475
*1313 FILLER_0_14_477
*1314 FILLER_0_14_489
*1315 FILLER_0_14_493
*1316 FILLER_0_14_514
*1317 FILLER_0_14_526
*1318 FILLER_0_14_533
*1319 FILLER_0_14_545
*1320 FILLER_0_14_557
*1321 FILLER_0_14_569
*1322 FILLER_0_14_577
*1323 FILLER_0_14_65
*1324 FILLER_0_14_77
*1325 FILLER_0_14_83
*1326 FILLER_0_14_85
*1327 FILLER_0_14_91
*1328 FILLER_0_15_103
*1329 FILLER_0_15_108
*1330 FILLER_0_15_113
*1331 FILLER_0_15_125
*1332 FILLER_0_15_137
*1333 FILLER_0_15_149
*1334 FILLER_0_15_15
*1335 FILLER_0_15_161
*1336 FILLER_0_15_167
*1337 FILLER_0_15_169
*1338 FILLER_0_15_209
*1339 FILLER_0_15_221
*1340 FILLER_0_15_225
*1341 FILLER_0_15_236
*1342 FILLER_0_15_248
*1343 FILLER_0_15_260
*1344 FILLER_0_15_27
*1345 FILLER_0_15_272
*1346 FILLER_0_15_281
*1347 FILLER_0_15_293
*1348 FILLER_0_15_3
*1349 FILLER_0_15_305
*1350 FILLER_0_15_317
*1351 FILLER_0_15_329
*1352 FILLER_0_15_335
*1353 FILLER_0_15_337
*1354 FILLER_0_15_349
*1355 FILLER_0_15_361
*1356 FILLER_0_15_373
*1357 FILLER_0_15_385
*1358 FILLER_0_15_39
*1359 FILLER_0_15_391
*1360 FILLER_0_15_393
*1361 FILLER_0_15_405
*1362 FILLER_0_15_417
*1363 FILLER_0_15_429
*1364 FILLER_0_15_441
*1365 FILLER_0_15_447
*1366 FILLER_0_15_449
*1367 FILLER_0_15_461
*1368 FILLER_0_15_473
*1369 FILLER_0_15_484
*1370 FILLER_0_15_496
*1371 FILLER_0_15_505
*1372 FILLER_0_15_51
*1373 FILLER_0_15_522
*1374 FILLER_0_15_534
*1375 FILLER_0_15_546
*1376 FILLER_0_15_55
*1377 FILLER_0_15_558
*1378 FILLER_0_15_561
*1379 FILLER_0_15_57
*1380 FILLER_0_15_573
*1381 FILLER_0_15_579
*1382 FILLER_0_15_69
*1383 FILLER_0_15_92
*1384 FILLER_0_16_115
*1385 FILLER_0_16_127
*1386 FILLER_0_16_139
*1387 FILLER_0_16_144
*1388 FILLER_0_16_15
*1389 FILLER_0_16_156
*1390 FILLER_0_16_168
*1391 FILLER_0_16_172
*1392 FILLER_0_16_176
*1393 FILLER_0_16_188
*1394 FILLER_0_16_197
*1395 FILLER_0_16_209
*1396 FILLER_0_16_243
*1397 FILLER_0_16_251
*1398 FILLER_0_16_253
*1399 FILLER_0_16_265
*1400 FILLER_0_16_27
*1401 FILLER_0_16_272
*1402 FILLER_0_16_284
*1403 FILLER_0_16_29
*1404 FILLER_0_16_296
*1405 FILLER_0_16_3
*1406 FILLER_0_16_309
*1407 FILLER_0_16_321
*1408 FILLER_0_16_345
*1409 FILLER_0_16_357
*1410 FILLER_0_16_363
*1411 FILLER_0_16_365
*1412 FILLER_0_16_377
*1413 FILLER_0_16_389
*1414 FILLER_0_16_401
*1415 FILLER_0_16_406
*1416 FILLER_0_16_41
*1417 FILLER_0_16_418
*1418 FILLER_0_16_421
*1419 FILLER_0_16_433
*1420 FILLER_0_16_439
*1421 FILLER_0_16_443
*1422 FILLER_0_16_455
*1423 FILLER_0_16_467
*1424 FILLER_0_16_47
*1425 FILLER_0_16_475
*1426 FILLER_0_16_505
*1427 FILLER_0_16_510
*1428 FILLER_0_16_522
*1429 FILLER_0_16_530
*1430 FILLER_0_16_533
*1431 FILLER_0_16_545
*1432 FILLER_0_16_549
*1433 FILLER_0_16_553
*1434 FILLER_0_16_565
*1435 FILLER_0_16_577
*1436 FILLER_0_16_62
*1437 FILLER_0_16_74
*1438 FILLER_0_16_80
*1439 FILLER_0_16_85
*1440 FILLER_0_16_93
*1441 FILLER_0_17_105
*1442 FILLER_0_17_111
*1443 FILLER_0_17_113
*1444 FILLER_0_17_149
*1445 FILLER_0_17_15
*1446 FILLER_0_17_157
*1447 FILLER_0_17_189
*1448 FILLER_0_17_193
*1449 FILLER_0_17_202
*1450 FILLER_0_17_209
*1451 FILLER_0_17_221
*1452 FILLER_0_17_225
*1453 FILLER_0_17_237
*1454 FILLER_0_17_249
*1455 FILLER_0_17_27
*1456 FILLER_0_17_278
*1457 FILLER_0_17_281
*1458 FILLER_0_17_3
*1459 FILLER_0_17_315
*1460 FILLER_0_17_319
*1461 FILLER_0_17_328
*1462 FILLER_0_17_33
*1463 FILLER_0_17_332
*1464 FILLER_0_17_337
*1465 FILLER_0_17_349
*1466 FILLER_0_17_381
*1467 FILLER_0_17_413
*1468 FILLER_0_17_419
*1469 FILLER_0_17_480
*1470 FILLER_0_17_492
*1471 FILLER_0_17_505
*1472 FILLER_0_17_517
*1473 FILLER_0_17_529
*1474 FILLER_0_17_537
*1475 FILLER_0_17_54
*1476 FILLER_0_17_558
*1477 FILLER_0_17_561
*1478 FILLER_0_17_57
*1479 FILLER_0_17_573
*1480 FILLER_0_17_579
*1481 FILLER_0_17_69
*1482 FILLER_0_17_81
*1483 FILLER_0_17_93
*1484 FILLER_0_18_109
*1485 FILLER_0_18_121
*1486 FILLER_0_18_133
*1487 FILLER_0_18_139
*1488 FILLER_0_18_141
*1489 FILLER_0_18_15
*1490 FILLER_0_18_153
*1491 FILLER_0_18_165
*1492 FILLER_0_18_177
*1493 FILLER_0_18_189
*1494 FILLER_0_18_195
*1495 FILLER_0_18_217
*1496 FILLER_0_18_233
*1497 FILLER_0_18_239
*1498 FILLER_0_18_243
*1499 FILLER_0_18_251
*1500 FILLER_0_18_253
*1501 FILLER_0_18_265
*1502 FILLER_0_18_27
*1503 FILLER_0_18_277
*1504 FILLER_0_18_289
*1505 FILLER_0_18_29
*1506 FILLER_0_18_3
*1507 FILLER_0_18_301
*1508 FILLER_0_18_307
*1509 FILLER_0_18_309
*1510 FILLER_0_18_321
*1511 FILLER_0_18_333
*1512 FILLER_0_18_345
*1513 FILLER_0_18_357
*1514 FILLER_0_18_363
*1515 FILLER_0_18_365
*1516 FILLER_0_18_377
*1517 FILLER_0_18_384
*1518 FILLER_0_18_396
*1519 FILLER_0_18_408
*1520 FILLER_0_18_41
*1521 FILLER_0_18_416
*1522 FILLER_0_18_421
*1523 FILLER_0_18_433
*1524 FILLER_0_18_447
*1525 FILLER_0_18_459
*1526 FILLER_0_18_471
*1527 FILLER_0_18_475
*1528 FILLER_0_18_477
*1529 FILLER_0_18_489
*1530 FILLER_0_18_501
*1531 FILLER_0_18_528
*1532 FILLER_0_18_53
*1533 FILLER_0_18_533
*1534 FILLER_0_18_537
*1535 FILLER_0_18_561
*1536 FILLER_0_18_573
*1537 FILLER_0_18_579
*1538 FILLER_0_18_61
*1539 FILLER_0_18_75
*1540 FILLER_0_18_83
*1541 FILLER_0_18_85
*1542 FILLER_0_18_97
*1543 FILLER_0_19_109
*1544 FILLER_0_19_113
*1545 FILLER_0_19_125
*1546 FILLER_0_19_129
*1547 FILLER_0_19_15
*1548 FILLER_0_19_150
*1549 FILLER_0_19_162
*1550 FILLER_0_19_169
*1551 FILLER_0_19_181
*1552 FILLER_0_19_193
*1553 FILLER_0_19_205
*1554 FILLER_0_19_217
*1555 FILLER_0_19_223
*1556 FILLER_0_19_225
*1557 FILLER_0_19_229
*1558 FILLER_0_19_261
*1559 FILLER_0_19_27
*1560 FILLER_0_19_273
*1561 FILLER_0_19_279
*1562 FILLER_0_19_281
*1563 FILLER_0_19_293
*1564 FILLER_0_19_3
*1565 FILLER_0_19_305
*1566 FILLER_0_19_314
*1567 FILLER_0_19_326
*1568 FILLER_0_19_334
*1569 FILLER_0_19_337
*1570 FILLER_0_19_349
*1571 FILLER_0_19_361
*1572 FILLER_0_19_369
*1573 FILLER_0_19_39
*1574 FILLER_0_19_390
*1575 FILLER_0_19_393
*1576 FILLER_0_19_397
*1577 FILLER_0_19_426
*1578 FILLER_0_19_438
*1579 FILLER_0_19_446
*1580 FILLER_0_19_449
*1581 FILLER_0_19_461
*1582 FILLER_0_19_473
*1583 FILLER_0_19_485
*1584 FILLER_0_19_497
*1585 FILLER_0_19_503
*1586 FILLER_0_19_51
*1587 FILLER_0_19_525
*1588 FILLER_0_19_537
*1589 FILLER_0_19_549
*1590 FILLER_0_19_55
*1591 FILLER_0_19_557
*1592 FILLER_0_19_561
*1593 FILLER_0_19_57
*1594 FILLER_0_19_573
*1595 FILLER_0_19_579
*1596 FILLER_0_19_65
*1597 FILLER_0_19_70
*1598 FILLER_0_19_82
*1599 FILLER_0_19_94
*1600 FILLER_0_1_113
*1601 FILLER_0_1_146
*1602 FILLER_0_1_15
*1603 FILLER_0_1_177
*1604 FILLER_0_1_225
*1605 FILLER_0_1_27
*1606 FILLER_0_1_279
*1607 FILLER_0_1_3
*1608 FILLER_0_1_301
*1609 FILLER_0_1_309
*1610 FILLER_0_1_335
*1611 FILLER_0_1_349
*1612 FILLER_0_1_39
*1613 FILLER_0_1_390
*1614 FILLER_0_1_417
*1615 FILLER_0_1_43
*1616 FILLER_0_1_447
*1617 FILLER_0_1_461
*1618 FILLER_0_1_503
*1619 FILLER_0_1_564
*1620 FILLER_0_1_57
*1621 FILLER_0_1_576
*1622 FILLER_0_20_116
*1623 FILLER_0_20_132
*1624 FILLER_0_20_144
*1625 FILLER_0_20_15
*1626 FILLER_0_20_156
*1627 FILLER_0_20_160
*1628 FILLER_0_20_169
*1629 FILLER_0_20_176
*1630 FILLER_0_20_188
*1631 FILLER_0_20_197
*1632 FILLER_0_20_209
*1633 FILLER_0_20_221
*1634 FILLER_0_20_23
*1635 FILLER_0_20_233
*1636 FILLER_0_20_245
*1637 FILLER_0_20_251
*1638 FILLER_0_20_253
*1639 FILLER_0_20_288
*1640 FILLER_0_20_29
*1641 FILLER_0_20_3
*1642 FILLER_0_20_300
*1643 FILLER_0_20_329
*1644 FILLER_0_20_358
*1645 FILLER_0_20_373
*1646 FILLER_0_20_385
*1647 FILLER_0_20_397
*1648 FILLER_0_20_409
*1649 FILLER_0_20_41
*1650 FILLER_0_20_417
*1651 FILLER_0_20_421
*1652 FILLER_0_20_433
*1653 FILLER_0_20_445
*1654 FILLER_0_20_457
*1655 FILLER_0_20_469
*1656 FILLER_0_20_475
*1657 FILLER_0_20_477
*1658 FILLER_0_20_489
*1659 FILLER_0_20_497
*1660 FILLER_0_20_519
*1661 FILLER_0_20_53
*1662 FILLER_0_20_531
*1663 FILLER_0_20_533
*1664 FILLER_0_20_545
*1665 FILLER_0_20_557
*1666 FILLER_0_20_569
*1667 FILLER_0_20_57
*1668 FILLER_0_20_577
*1669 FILLER_0_20_78
*1670 FILLER_0_20_85
*1671 FILLER_0_20_93
*1672 FILLER_0_21_11
*1673 FILLER_0_21_110
*1674 FILLER_0_21_116
*1675 FILLER_0_21_128
*1676 FILLER_0_21_140
*1677 FILLER_0_21_152
*1678 FILLER_0_21_156
*1679 FILLER_0_21_189
*1680 FILLER_0_21_193
*1681 FILLER_0_21_202
*1682 FILLER_0_21_206
*1683 FILLER_0_21_210
*1684 FILLER_0_21_222
*1685 FILLER_0_21_225
*1686 FILLER_0_21_237
*1687 FILLER_0_21_243
*1688 FILLER_0_21_255
*1689 FILLER_0_21_267
*1690 FILLER_0_21_279
*1691 FILLER_0_21_281
*1692 FILLER_0_21_293
*1693 FILLER_0_21_297
*1694 FILLER_0_21_3
*1695 FILLER_0_21_306
*1696 FILLER_0_21_318
*1697 FILLER_0_21_330
*1698 FILLER_0_21_345
*1699 FILLER_0_21_357
*1700 FILLER_0_21_369
*1701 FILLER_0_21_381
*1702 FILLER_0_21_389
*1703 FILLER_0_21_393
*1704 FILLER_0_21_40
*1705 FILLER_0_21_405
*1706 FILLER_0_21_417
*1707 FILLER_0_21_429
*1708 FILLER_0_21_441
*1709 FILLER_0_21_447
*1710 FILLER_0_21_452
*1711 FILLER_0_21_464
*1712 FILLER_0_21_503
*1713 FILLER_0_21_505
*1714 FILLER_0_21_51
*1715 FILLER_0_21_517
*1716 FILLER_0_21_529
*1717 FILLER_0_21_541
*1718 FILLER_0_21_55
*1719 FILLER_0_21_553
*1720 FILLER_0_21_559
*1721 FILLER_0_21_561
*1722 FILLER_0_21_57
*1723 FILLER_0_21_573
*1724 FILLER_0_21_579
*1725 FILLER_0_21_69
*1726 FILLER_0_21_98
*1727 FILLER_0_22_121
*1728 FILLER_0_22_133
*1729 FILLER_0_22_139
*1730 FILLER_0_22_141
*1731 FILLER_0_22_145
*1732 FILLER_0_22_149
*1733 FILLER_0_22_15
*1734 FILLER_0_22_161
*1735 FILLER_0_22_173
*1736 FILLER_0_22_185
*1737 FILLER_0_22_193
*1738 FILLER_0_22_217
*1739 FILLER_0_22_229
*1740 FILLER_0_22_250
*1741 FILLER_0_22_253
*1742 FILLER_0_22_265
*1743 FILLER_0_22_27
*1744 FILLER_0_22_277
*1745 FILLER_0_22_289
*1746 FILLER_0_22_3
*1747 FILLER_0_22_301
*1748 FILLER_0_22_307
*1749 FILLER_0_22_309
*1750 FILLER_0_22_321